27

H   0.3706949523721339   1.2776424480742086   0.3874791393326876
H   0.9327329936298286   0.8343244174647806   1.1670986962399463
H   1.530031311696581   1.5666568191575312   1.3062623886925757
H   1.3373170089155322   1.2777931155767654   0.42956427257607355
H   0.7075014416520329   2.070585067385833   0.30614225022431335
H   1.2769466386436878   2.376907116790501   2.003639637717666
H   0.7189355262146755   0.9779891042637684   1.2876185830786444
H   1.020948946026367   1.9011164884335723   1.3349015178038355
H   1.6190102733103366   2.6112332554374618   1.0690103527074344
H   1.6829635054588883   2.165745704968353   0.7200299207595324
H   1.4542683598599917   1.5938048476512734   1.573116844141223
H   0.8132647533186477   1.7397019061283296   0.7305785095101022
H   0.7144899408355756   1.5501572321859705   1.054242327996465
H   1.4667185981084154   0.8466220744164623   0.761033565403799
H   1.8345241350181238   1.6894823195475612   1.090631327851895
H   1.3740173593241023   1.6025833165301162   1.8335202534641633
H   1.9893735509530197   2.2283107694808617   0.907060032721854
H   2.1359468246948405   2.1704363073798567   1.8704915632955659
H   1.212837352718401   0.9342959349302219   0.5930979757910224
H   1.913433482056136   0.30884233790658355   1.3630055227001905
H   2.266901915268946   1.1836771336163938   1.861329227254517
H   1.607738506818525   1.3152047188225222   1.407171061389767
H   1.8427185312772398   2.494312566814271   1.1639216917593764
H   2.333457637390167   2.1398370744679394   1.9071240738300368
H   1.2533659513906485   1.9771060600236985   0.8296475961700729
H   1.8886310286542405   1.5142272848482063   1.610506336303468
H   1.9345645753973308   1.8514438577643975   2.8003162969156827

