27

H   0.16140130741579187   0.506035910555051   -0.24263870159891335
H   0.403963372675332   0.14510189490272588   0.7165462282168639
H   0.9950168306444103   0.7339339583716372   1.4030063722224018
H   0.3886479842908516   0.7801009765072685   0.9159490357402025
H   1.5411658051888812   1.1332794158979194   2.2005405254485475
H   1.860727276857699   1.7577125210810884   3.032015931125551
H   -0.25278617631830597   1.5573164201418508   1.3820729918157042
H   0.6103389267229665   1.5366270966277682   1.8506242411910483
H   1.1008814192152785   2.4967026765356395   3.0167325158610825
H   0.01074723396132071   0.9764924520425269   0.690058978897353
H   1.0138069043273534   0.85339597842871   0.4110161312562958
H   2.199060205054868   0.6331013864909191   1.4471315527408275
H   0.8846082669952338   1.8124809853795703   0.5016915395920106
H   1.482679707269549   1.3728654471111843   1.1823191774765411
H   2.0294540413440267   1.48417677189144   2.1122630683594665
H   0.5551689723790199   2.113267265921744   1.3893422552867047
H   1.6644421796946651   2.396920088934468   1.5215872584786119
H   1.9608478328307508   2.2548041753968806   2.903248275469353
H   0.7623293782455555   1.1826333896715167   0.11037745689995065
H   1.6875620843544428   1.4402008834483202   0.9387206398246295
H   2.411113348746107   1.926588846438315   0.5407996030522895
H   1.9807456996875006   1.6652933630399858   0.4524023552937082
H   1.4546457573967737   2.4125656794388313   1.1503971654582374
H   2.5451873827790727   2.1224438440067535   1.5646825583427146
H   1.6344915359788086   2.400526501734557   1.217451629608636
H   2.126135041963349   3.275177181053395   1.4237153622114485
H   3.096422363480966   3.319635470573962   2.0348240260322425

