27

H   0.22156466976643502   0.1191594844845773   0.4826054953465898
H   0.7124587770621753   0.3408558510801866   1.441568351822802
H   1.5793885505667782   0.13891075028057212   0.9201438957651114
H   0.12417803474204686   1.0634848973267343   0.45618030793226555
H   0.8949684229117079   1.196736488525756   1.1049138148628492
H   1.5003519611629523   0.7501661570549071   1.7506975003394438
H   0.82741243426337   1.5841692451994778   1.0115485466617542
H   0.5815065758948295   1.846593074637392   1.9951328460613469
H   1.3290635017760877   1.3830360294545172   2.5505110057927376
H   0.6653408811946719   1.0481995263452453   0.2852347141813288
H   1.522940385283111   0.5703236013296973   0.7405548673569095
H   2.16054451859205   0.7095077776877639   1.5080527680744764
H   0.8221506164851962   1.5734773874102341   1.064310258700752
H   1.7036592685074403   1.565958393982757   0.6688718864852151
H   1.9660832197631952   1.6215010031654395   1.668874363220542
H   0.6444934419858404   2.0127514912006372   1.9491203462680813
H   1.5436250479034068   1.9201712177870194   1.575821049877401
H   1.9327615669353106   2.133435658863738   2.5269259323931896
H   1.2595815105482475   1.5604202363449489   -0.35444547690003103
H   2.1042143348397215   1.3042616196297498   0.3012313889963759
H   2.7497704686738667   1.3440030128660412   1.0108487824971462
H   1.5215708376304014   2.0417364328206906   0.46522508557400244
H   2.545491492181021   2.094066000842051   0.6839788328142654
H   2.829757013930574   2.182131729769464   1.6635355293605776
H   1.4148692367939177   2.2803330393383554   1.427419265156307
H   2.340886492212321   2.5329577483835255   1.5999153384460065
H   2.760021302512389   2.730963786604552   2.536973109058795

