27

H   1.422200406737213   0.8177394290965908   1.3728118111302772
H   0.5380125628998657   0.1508131029330913   1.1900695602610976
H   0.8080637734728099   0.6858611029901087   2.216047412369749
H   1.3029292291929864   -0.00222024753602261   0.898161488596973
H   1.8358985857506576   0.31133171465932774   1.7615553720463837
H   1.3914371462358592   1.269506101792078   1.7311067357325922
H   0.6844925704336885   1.003819823930307   0.7363887794603974
H   1.1613562033194809   1.045250235843375   1.5949510492925971
H   1.402751431195226   1.3695928707256269   2.7650322354185164
H   0.628209238603505   0.5673307332865712   1.0208203040808959
H   1.0928023806728444   0.427099718215687   1.9762696137995823
H   2.9971542001541467   0.7864747792346956   1.3704531273681313
H   1.3119095950255077   1.1381887022637551   0.5692014281766109
H   1.623659204223684   1.2999442348550465   1.5637640329672275
H   1.560353329771103   0.34517688597287466   1.33809649688281
H   1.5547094551847223   1.0180688477145243   1.450292732564284
H   1.5075398831617268   1.0680928394017655   2.6126462762921134
H   2.334932045624036   1.2245892772065736   2.012775613733298
H   1.7846886420466999   0.8974126094901541   0.5076606615480439
H   1.9423985171470624   0.33468309007242414   1.3251207131338774
H   0.7167030788233119   -0.16137052831937332   2.6540931900488163
H   1.5470932491924252   0.7686258150267471   1.4865951771869468
H   2.320298959708601   1.2031026538704543   0.7390392287511366
H   2.4516838233870546   1.152940944448336   1.7257721939043673
H   1.6384301804904315   1.8523183916949704   1.0452135217612313
H   2.1439922639346993   1.3515342310183507   1.6700321141601706
H   1.31853300568578   0.9370201020008664   1.6748376002852317

