27

H   1.4726383974596935   2.720504370773203   1.5513018762933948
H   2.304941022717903   2.1499288296724957   1.2773356624310401
H   1.6096916988109273   2.449230925474565   2.5512449353922726
H   1.4993720908161128   3.2416179089629114   2.471185952359643
H   1.4705885630437736   2.813141097153913   0.6624781487534265
H   2.1903493583728624   2.4577258130780764   1.7147935925427067
H   1.9504902661708423   2.3413884699686385   2.5317935906595643
H   2.303138197837885   1.2260566947404528   1.3208170943459991
H   1.3103773358416306   2.0355363953798693   1.6764229894870475
H   1.9974936172692208   2.216450985104285   0.848188808871288
H   1.268965305512413   2.0602701358952036   1.5246143918641044
H   0.9193280068464826   1.8543002528557457   2.529710709920081
H   1.6039787207952705   1.3106680542027802   0.3848654045887415
H   2.011249930476746   2.5669173185177585   1.5827093510677577
H   1.4455242181351684   1.6878993428888933   1.586109795604012
H   1.1713829714492283   1.9301100877831459   2.8628272730320083
H   1.693276663574544   1.4558045880511385   2.123100607968231
H   0.7582267861708154   1.1351947382247751   1.9880345822424657
H   2.2821978601229675   2.4131950139002623   1.923141560612058
H   2.0427896039026505   1.3931492225216915   1.8367134058240522
H   1.3476619191384533   2.2875392396010037   1.546376633964423
H   0.9028466096334549   2.649548407489288   1.9478603077620966
H   1.172045267300424   1.9182101481068643   1.4804670898168089
H   0.4770480703259957   1.4781650554172379   1.8983512792060417
H   1.552137395037972   1.8328878281541199   1.7562201167307623
H   1.2229804628212104   0.9600577719548831   1.3909665211691127
H   1.094294840991829   1.6761597743491339   0.7776175100379463

