27

H   1.370097680860211   1.7927194297174645   2.2094337825158554
H   -0.20719923479741448   1.6189336509509722   1.3475015727316182
H   0.7750551642036898   1.1457937672219807   1.5975321830434388
H   1.3953213732244554   1.7263452784059337   1.193631721534201
H   0.6624087313684738   1.213628680557562   1.4265741159729095
H   0.3936381761483223   2.220779009301904   1.7003890783374702
H   1.8624808170333638   1.0350291335086685   1.880818614115358
H   1.199395560140719   1.6805643637406789   2.464437521540682
H   0.2629160503164012   1.4873978293112997   2.382820116667143
H   2.354972086736326   2.2335748446534476   2.0944494242833778
H   2.7487952844356682   1.48470009778542   1.4106728673768423
H   1.7354855045769595   1.4604946500272258   2.1839870562073527
H   0.9030756847585362   1.066339694665236   1.7306729103648997
H   1.892858476111341   1.048023458835463   1.232785399008655
H   1.3151139246444388   1.8613764617099087   1.305473034682874
H   1.5354053291779197   1.356195552767124   0.936870270032283
H   1.9392583330860533   2.0361299140866564   1.6419105923733952
H   0.9572984376226521   1.1146295662042076   1.7549859713263196
H   0.9059220516311033   2.751660200096465   1.7428966085901525
H   2.1825074843819565   2.2589051701421043   1.8962683502534492
H   1.297959251650197   1.8518948194635596   1.3625560647759667
H   0.47578811384750824   1.9401488318888942   1.5394486691971385
H   1.6825553904662194   2.0648588239905132   1.0496290536363635
H   1.2811408301809497   2.968079418688343   1.4075619839366278
H   1.8399958516932908   2.0205971618666534   1.7800174596505425
H   1.6476380604464074   3.0472434898411773   1.4585879154332
H   1.132193347618842   2.8380312253048356   2.344106078712392

