27

H   0.5005020832737934   0.14517403996446648   0.7248602530269472
H   0.9949310282706899   0.5473729400607666   1.7530458205556718
H   1.4495477410349775   0.47507030289294083   0.878310288354675
H   0.5772778751582339   0.9461709078374915   0.20272882965826197
H   0.8923026638982047   1.3955165259838924   1.0784933153255474
H   1.135161855924605   0.6292790897193725   1.8230001046708075
H   0.7896264858154807   1.6691513143817744   1.0314277981215383
H   0.567121652603956   1.4187220135483891   1.993949544954116
H   1.513566028399284   1.4734289644074567   2.5298550601507674
H   0.8063305579062874   0.7831484584695969   0.05320364473628614
H   1.4481132186832442   0.669323800543225   0.8927754977927037
H   2.0005645318517185   0.6149253102268989   1.740055551690833
H   0.8449820982076489   1.3944534657994843   1.04498041966577
H   1.7821483293738976   1.6188135822897498   0.6504304050432839
H   1.69232445223848   1.5508563049331099   1.7128357869767408
H   0.392168211991485   2.0402608734845686   1.8027747330004
H   1.3770354813910282   1.6226382937489818   1.49138882976097
H   1.5152674056336832   2.426411786613713   2.253556816443608
H   1.4108697114732751   1.477616953253952   -0.23784866906621707
H   1.9299262965011637   1.6686828830617648   0.5236798170257155
H   2.4466730161551045   1.2261140254720564   1.1128472778568939
H   1.6682321241176645   1.8581245676473992   0.741810172746916
H   2.750755949568134   1.9750229305966922   0.8057564191284097
H   2.5405498904822266   1.9415755469422653   1.7743566602963132
H   1.2786272999373323   2.423067381986599   1.4678178152059196
H   2.2220989968124343   2.0615583476220998   1.7212564734352087
H   2.252600808795459   2.333934478391727   2.821367986092989

