27

H   0.16866158069760126   0.23764101937238108   -0.10476791045243794
H   0.217655987889038   0.6223113202464662   0.7701117555751381
H   1.2140883116718224   0.6612490451495183   1.1422225209202863
H   0.3387353465987621   0.9949531902924771   1.0649729178930691
H   1.6201318316634905   1.2621598719080611   2.138951044446946
H   1.8574174862626367   1.798448570715319   3.1434945437764483
H   -0.3013704420746457   1.5984810550071318   1.5468022113776463
H   0.7576674476786003   1.6987697067233796   2.1353255407169116
H   0.7964665497785648   2.4020158418774997   2.9756354701557752
H   0.16657167846765697   0.9107246156836184   0.7782914696598363
H   1.1925507822482413   0.4245139265174229   0.750303635897767
H   2.250805121024618   0.660158281187516   1.2654311528790188
H   1.0217453611920901   1.4016298272255678   0.30826125521165226
H   1.6008269541840963   1.2106122767829088   1.1630236720365732
H   2.003838479207099   1.2876737001842498   2.046032282940014
H   0.7686614969366049   1.8522789615857989   1.1919025952213897
H   1.5328212717608625   2.1561654643293138   1.5986779202184789
H   1.9272577904106516   2.099765858788562   2.7958631933799607
H   0.9722029067241467   0.9764667523668223   0.09458839336520329
H   1.328227227325421   1.395833181447742   0.8672677020806006
H   2.315391184875311   1.8547434477126206   0.8283003127629989
H   2.229898205386448   1.8433084042779622   0.6855073557563524
H   1.5228686707041132   2.4011178606770036   1.2574841424045515
H   2.3391503707557053   2.223293352388862   1.7519637942055086
H   1.634063221635527   2.392117662648286   1.2528963495602066
H   1.727936453532262   3.4693788204823983   1.7422405840413764
H   2.7589630566848036   3.5021633284752802   2.013598022152214

