27

H   -0.12294720025284492   0.44140387102565387   1.1304282654711317
H   0.7564058895844443   0.9237523789082464   1.6506486823831947
H   1.4567220045005465   0.6016911412875714   2.3469840440446084
H   0.4098359056374569   1.2436148730366798   0.7460182275999258
H   1.3251524112329407   0.6009819235214818   0.7025438291467977
H   1.539775430787085   1.4225142174172136   1.6210214097651028
H   0.8216918730826028   0.7835747299266307   1.4444321053194566
H   1.684313042464068   1.233956134142024   1.416427522917156
H   2.5747080811416456   1.3210064347011807   2.016460664397028
H   0.6324334131553138   0.5863352203854152   0.45288583314934083
H   1.4193096889423549   1.1980540054446596   0.6343066364354297
H   1.802266358209033   1.2228654071273386   1.571843278233158
H   0.4684287535848868   0.6973914317733012   1.6872082367773873
H   1.375611789311615   1.2717720121352378   1.634902065222463
H   1.8299724552705112   1.4285514533109602   2.5980300119825617
H   0.7429591685357277   1.5579327494267756   0.7326111953593744
H   1.2959863603064936   2.173943383211267   1.1735843676674007
H   2.1157186300317976   2.212184765690665   1.8987985991578749
H   1.5185281090086369   0.2010795996108466   0.6659810784709287
H   1.8746429402283087   0.8231182445589104   1.5793511034008978
H   2.5815899613943185   0.6667966675313268   2.464186132475881
H   1.3370468643027562   1.0814231391838893   0.9815584971083154
H   2.2010890431565997   1.569563818091323   1.0259153925164664
H   2.998596137145209   1.3988487585677918   2.1286608094154493
H   1.1134739976155548   1.7342945145222508   1.831136996775409
H   2.0621429486666347   2.1276759705380197   1.8964141182620882
H   1.8592497192966755   1.4959925890614503   2.7319928376834146

