27

H   1.191585711623995   2.13045739817781   1.888934609302819
H   0.794589509654627   1.306228403341805   2.603771769350496
H   1.1534269732428954   1.1315657250814208   1.779387215119647
H   1.063146526052144   1.7925334655754472   1.006698405803784
H   1.191765701631929   0.9768564686785625   1.4950142623452876
H   0.28064666547759165   1.371648689525573   1.38031182562439
H   1.330230614962849   1.222631186764594   1.8804643432395125
H   0.7694891555940712   2.299112096091808   1.8467793975380051
H   0.35290196790161554   1.1627320148287341   2.333651199439123
H   1.8423278008410646   1.7213613827739391   2.5242667835177617
H   2.8094532028894577   1.6631740935474164   2.0500694402114017
H   1.9650475561687784   1.4020193153725786   1.3842276601399937
H   0.9719373489274393   0.9901957795577028   1.7423139034530055
H   1.7300982680202055   1.4854979569485953   2.2310168082727238
H   1.6528119623185644   2.2785277830628083   1.2931235056509947
H   1.5332895279260386   1.6637656356137125   0.9525904246120971
H   1.9173956979274194   2.3107976763071725   1.661603567123158
H   1.0956434358522535   1.5489696983228072   1.81128502520607
H   1.5242112007442237   3.369117804413086   1.8464272577567549
H   2.4645391864844646   2.5961634266263265   1.6298825821927831
H   1.4848645287548827   2.333457154224068   1.2012544897032702
H   0.8872208036495718   2.132640306599136   1.8615067846287778
H   1.7347046605314023   1.8638469726279947   1.212272900378658
H   1.6745698436514078   3.095611669629691   1.8471547642954205
H   1.768464350773501   2.370913595574753   1.783691064243752
H   1.346635008873644   3.153171062508606   2.014874013024582
H   0.6596152713114182   2.513382012181502   1.73220741201721

