27

H   0.48305618691118746   1.8177946408485117   0.5927835743275393
H   0.8108806209794509   0.8538075323567029   1.1982460165214448
H   0.7357443322436802   1.4054290488526424   1.9052437142752106
H   0.9412323033955544   1.0128258456317627   0.18120540616851355
H   0.893622779543833   1.7668670572726661   0.943351391912552
H   1.6832221408913313   1.9676186938896265   1.9683268216634846
H   1.034644217292481   1.04168954327779   1.1757957011120235
H   0.7123971398881367   1.5665337577662397   1.941866610805958
H   1.03588636441612   2.1840996087320876   2.7512249466152263
H   1.833595753613733   1.253303494191963   0.7886310538792862
H   2.1200825435816917   1.2898508754241544   2.2262138713337056
H   1.7675597192979071   0.6864596027666142   1.562114117818268
H   0.9210527059397906   1.390412002727893   1.3004873826535577
H   1.4966074753134864   1.2379691847195367   0.3804304188381804
H   1.9624037401874743   1.5485603630571378   1.1107370445575067
H   1.974764546082332   0.6302780067166462   1.7066983197559036
H   1.7422376666701656   1.648466027168248   1.4021154092021735
H   2.4256925025040794   2.014712056384444   2.050833496101373
H   1.037588776158662   2.3100768333471726   1.440517095903446
H   1.1857458194886743   0.9334776223336587   2.1494395782532516
H   1.9228508784322729   1.6840177366901012   1.5947220759894924
H   1.4187633386290637   1.8828923739816956   0.715107014685531
H   0.90773549866782   0.7192893449545359   1.1328591907071428
H   2.3134852543212028   2.4812163953804345   1.181762635511757
H   1.7324490499220873   1.555386160266241   1.6564811382423776
H   1.6245557140339468   1.7033549235076997   2.591367379957202
H   1.7157081134338976   2.661726882168293   2.069241072531372

