27

H   0.6833263483995227   0.08030056756322881   0.5139338266653889
H   0.5970581608823053   1.1294403899994743   1.1044759534069977
H   1.2525132681682234   1.4507463874960318   2.3367050313617104
H   0.457755089651213   0.3871965341463693   1.5023650706292258
H   1.3470696603567012   0.8751869654924388   1.700217704552758
H   0.47520578972006733   1.3995043779497809   1.841271391776545
H   0.9516342269976339   2.35413260918831   2.627023701982914
H   0.9219335290528009   1.7195375377315054   1.8507547783494103
H   0.04882820571264811   2.2432756353769268   1.985633206776787
H   -0.14278347248409753   0.9418106780961958   1.0436446365780754
H   0.13784555879082458   2.0151167862855743   0.8384645204032192
H   0.6133429928330174   1.58426391091565   1.6228275235740164
H   1.3893090207247436   0.9513507964965181   1.2527687958675893
H   0.4637907866032549   1.5740167983454048   1.56380242066029
H   0.3292514610712253   2.3274651244596294   2.2855454328588842
H   1.0165569273201165   1.5209291548405701   1.8849166220068707
H   1.1630707437016194   1.6846800433215408   0.6975300977378969
H   -0.27976855295996866   1.188044835254566   1.7585077376637763
H   0.26545920756110297   0.8838472307373664   -0.011792893069600465
H   1.015787040895412   1.5400627173360026   0.2342744742739704
H   1.1277790607668179   2.179673313552936   0.8946625026171006
H   0.7246737575514649   1.4937977423814135   2.024447336253238
H   1.5723456330020247   1.6081369013940017   1.0689883183036804
H   0.7980156285267167   1.0430356456188214   0.8283461156383143
H   0.2983263744167727   2.5118431945298587   1.8618385723325184
H   1.2486101544853607   2.528943267852215   1.2370106545504234
H   0.5323655382281847   1.5543950320745417   1.5909592200514615

