27

H   0.4542201088950797   1.2818234793083352   0.4679978796136025
H   0.9992634609504043   0.7144932383123764   1.0895272899273623
H   1.6067869668885433   1.5052026912016483   1.342854695500907
H   1.4295019547459258   0.9930376663322965   0.3564019991707538
H   0.6887101405227591   1.852626495086808   0.25036056497200254
H   1.2705628220258098   2.283958152511687   1.8780796261473136
H   0.9584280639710921   0.7051175490429034   1.18771217503866
H   1.0309136782934973   1.6713726175885555   1.2350834722281256
H   1.7307145995356796   2.567192854030879   0.9829235854477846
H   1.7812811341058594   1.7251304962684477   0.7498970048504183
H   1.1517364577952218   1.650516552650236   1.6270934861279356
H   0.8295837555841972   1.556167626987451   0.5220851437219143
H   0.9467947951205797   1.4421067961139136   1.1738755471316697
H   1.7718093435982185   1.0592199065561378   0.928062602586161
H   1.8205703010798555   2.0146950136871506   0.8645353110966825
H   1.5176441263547356   1.1184985540986159   1.8595874976545
H   1.8227309258792237   1.958349212414094   0.8929556578473172
H   2.1650950364577985   2.2005965924448336   1.879192204974852
H   1.347468410068835   1.0110442047195418   0.31110335823047747
H   1.8057642794294704   0.4263355030564697   1.4807059294471394
H   2.127765932421379   1.0468514689043067   2.0707303550972322
H   1.9036956284120383   1.159346844154177   1.2828217181288142
H   1.7314844325153484   2.082816047006486   0.9717335260664466
H   2.265429411988349   1.9583178242683676   1.7949954686993508
H   1.1002074661982615   1.878337212639405   1.063314566366019
H   1.8263292014679167   1.3320627574305415   1.6530233789170454
H   1.9668029022689963   1.9780078152945633   2.7639302086340045

