27

H   1.1989854324775369   1.1781724965565261   1.575990143245692
H   0.17533589576560468   1.2368867518897053   1.2107266641977492
H   0.7449400206648374   0.7875409912041155   2.385697221568671
H   0.8986354647095908   0.25002779787374   1.800143499234637
H   1.974761402409279   0.5350742894623448   2.2727777175661026
H   1.1841039710734798   1.3022530407239303   1.4725261804697516
H   0.9710301462649065   2.0376506512717945   1.8355727721824515
H   1.122590027864097   1.1017347924121033   1.6866928383519153
H   1.7997672453941376   1.6614514233153272   2.227733258340209
H   0.5120529930226368   0.9186085808670745   1.034694140355196
H   0.8539794920659783   1.652867600836313   1.7922772012071493
H   2.340855941446909   -0.19707767797841105   1.4447532342907858
H   1.2486237405196723   0.9547298257008152   0.489822462099781
H   2.4874614730996125   1.314859750516588   1.3706366190589823
H   1.6556900626987605   0.4325604026418048   1.2444887076267408
H   1.2039025014467186   1.0278398936378101   1.8378083824131974
H   1.8519869208833861   1.7125725213241594   1.9006132788221262
H   2.1779822837129585   0.7757424017395441   1.967842663449866
H   1.6231729353033697   1.1784918000113864   0.6326224618135629
H   1.057249293895727   0.7200392153111911   1.48956023180717
H   -0.010532059247128796   0.9819241420586782   1.7095369942596854
H   1.314480552049159   1.122548941083376   1.6643064757777428
H   1.9424211395412565   0.5056352687768466   1.1426490789449368
H   2.3267927110407163   1.1041465755148943   1.7791927309297664
H   1.9584890957153127   1.8872065947445984   1.391500996254366
H   2.3740125375099574   0.9295543172849495   2.063654910537001
H   1.298499511992374   1.0513948784567366   1.6485989596234585

