27

H   1.4294545543872863   1.1934812972191022   1.7611231124392934
H   1.8802101634999946   1.8277310858392009   0.8793179087577163
H   2.0767628398372326   1.9172357212125088   2.0040376220805336
H   1.1394913891697696   2.223470634893028   1.8482917388894475
H   1.5774705982574095   2.805837595520857   1.199315207712619
H   2.738357810441947   2.356082945673933   1.3769536072356365
H   2.2780536230227955   1.619461097943922   1.6954727873186388
H   2.560296232191855   2.55282023952348   1.1836649610527383
H   2.1154403849079753   1.7625683037170796   0.6780589037468281
H   1.861808333066443   2.048517427624911   1.2690751019664053
H   0.9781482048854213   2.083120879974855   0.9239743947399797
H   1.0707032954760103   1.3307105574503972   1.5553827297518603
H   1.058229503228278   1.938931873597691   0.8876469461846082
H   0.6626457986643288   2.2458929789881195   1.8218675915607025
H   0.4722466680215133   0.8082247604995645   0.7518452561125623
H   1.4258649720359127   1.2101086064642528   1.9301594555958288
H   2.390887277351891   1.3556648029069913   1.8625620905200206
H   0.6589993460954469   0.4621649952472932   1.91159973053282
H   1.376056926612173   1.9875896910184516   2.3573519437137693
H   0.7150842473390859   1.5205951513056712   1.7472384888499934
H   1.5512483351722732   2.3345108810368234   1.1865087354493433
H   0.8266041490316559   1.3268772757779936   1.8859620657821887
H   1.685057380867651   1.8554132299848742   1.7828104644242897
H   0.545747743376077   2.1769853165084108   0.9701102187276646
H   1.1830417139129488   2.0765570605390224   1.3840438579507097
H   1.6552730097484782   0.9854266941872594   1.3222142026167014
H   1.1744394112841565   1.4982408245583696   0.5766782426428078

