27

H   -0.026090202590379384   0.27708402719478137   -0.03512947874983758
H   0.6141944766143709   -0.15572088098383535   0.45960637424447265
H   1.241614189552806   0.27830620116605576   1.114677694925646
H   0.1386808343152997   0.9222406173663324   0.7457422183630396
H   0.9366653177264386   0.8221266748968816   2.050342606114701
H   1.532599761253175   1.5128544736829213   2.5872361477844645
H   -0.05718611249752918   1.687336241625153   1.3573861596984544
H   0.653126631296615   1.8355565637915459   2.011329068612685
H   0.7957144609792689   2.1562764976619047   3.08444183644818
H   -0.04721186348596759   1.3101168319928156   0.32457903303178565
H   1.0851932574579026   0.9177168038647242   0.4547485004059762
H   2.0046571438864573   0.9409738401343948   1.1538642711400042
H   0.8358808403532254   1.5304379956322953   0.5082444200129017
H   1.4940009452879688   1.368316315262206   1.2078827638895266
H   2.2430441178811122   1.4958856215429508   1.9702986414919468
H   0.6903956817614141   2.3198694463176306   1.4922676713178975
H   1.5572416652189143   2.213117640015163   1.832756350082961
H   2.2010800652015106   2.224311462544945   2.6991251101571585
H   0.965812520433691   1.588739202051939   -0.12607030683817433
H   1.6382847465565298   1.631073076174573   0.7421854961083283
H   2.652944359289053   1.7671556517771616   0.5981780669628938
H   1.7725532328628788   1.9911172780741857   0.2610945929127957
H   1.6875516872246548   2.3222604501100568   1.3684651988671428
H   2.858767158680265   2.2365807751816913   1.887572693541738
H   1.719422596173275   2.388380710875191   1.1938654445149517
H   2.1236199250324947   3.202974210975968   1.5059788635480995
H   2.718860060964916   3.0894685151455814   2.422365684647264

