27

H   0.06126557414165115   -0.12952000414849713   0.39345556238676366
H   0.9369276560319609   -0.11712777379892496   0.9563705888978449
H   1.6441831886612759   -0.12796700338815148   1.6711935432037728
H   -0.035591497166915106   0.612036116368464   1.089504761553574
H   0.9211846568567732   0.8659606998587296   0.8822112146080174
H   1.4220581878624365   0.8382719518659295   1.731173399564916
H   0.009947144127267885   1.4709089883498818   1.6295714727299726
H   1.0027562715737321   1.3883822097094558   1.762474002554268
H   1.783045143427293   1.489326737620086   2.404826479396201
H   0.6267842750649877   0.579998521993748   -0.047523057093433296
H   1.3977396859227709   0.6934230653123369   0.5854842753727192
H   1.7477573898732481   0.8570245291803924   1.4554788356927995
H   0.783580249113926   1.0647670758688381   0.7871172439216381
H   1.5786407744371942   1.5857798140192638   1.0725950317250548
H   1.8508647319715397   1.7063224096453138   1.9854738303908455
H   0.6903048029341123   2.006833989034433   1.0802207802528458
H   1.3682014526141135   2.329436596070013   1.7018160430106728
H   1.8534191620304519   2.494564420574252   2.5602795982425213
H   1.5321170987230408   1.1006710707751017   0.10570421169951387
H   2.016120974715583   1.4285967793598298   0.9203333202484626
H   2.6754447135974058   1.2432528311782303   1.6517916321999193
H   1.4522032991501257   1.802246082052094   0.7816290325173545
H   2.1478707089207147   2.3891564859438112   1.2637544260443445
H   2.717414538211228   2.169336655721925   2.0623952485058386
H   1.5084450482093412   2.4733880404191364   1.508915285033537
H   2.044791656102113   2.906980001209614   2.193129825434052
H   2.7368512692525346   2.7663927882602652   2.9226501487358703

