27

H   1.3733638158584422   2.3220075238582347   1.7456701080017447
H   2.345373931872722   2.0399005095031177   1.1856117154301584
H   2.1368491031657073   2.125681488744857   2.386124819148236
H   2.0033073177898957   3.1866526709947944   1.6431472635425286
H   0.9432410973858284   2.31645912478203   1.0745926142121516
H   1.9488656662020634   2.300921754774007   1.1213583570190966
H   1.9516770882865306   2.149286224815432   2.5726646079163267
H   1.9440967002732261   1.0966907762370448   1.2165008852106285
H   1.2035365256391783   1.7762648632323215   2.001076017499601
H   1.8734811505642475   2.778902803791978   1.177474065117125
H   1.4527192064769205   1.66908992887075   1.351481088309071
H   1.2669122050879933   1.7532528075480716   2.486148380733217
H   1.3747291266603279   0.28847175416214194   0.7012085438540969
H   1.85298263723801   2.5089583851419412   1.409937084929153
H   1.001674658458096   1.9407133761240383   1.50761668079317
H   0.8640508934682029   1.7693299529761568   2.327833440340501
H   1.9744743161286407   1.4474671742211236   2.1543861263944826
H   1.1127137463385612   0.821998420929851   2.2438485922282196
H   2.5796496723361897   2.1684789155415998   1.7281229294473124
H   1.9364469105009066   1.5425756934612853   2.2011023130529495
H   1.5569654335925924   2.0163997070304904   1.498291751214363
H   1.1609600314301234   2.5145089656925563   1.7164093255773356
H   1.1234260545417483   1.5278247073889912   1.5791708959576798
H   0.19721212314686198   1.4070864148943012   1.6384188580244377
H   1.6723847953149364   1.7147711709175042   1.740306526271105
H   1.4612274276469637   0.6414177174310688   1.9669767448811921
H   1.1129696622557386   1.2194390379514086   1.1946176510081061

