27

H   1.2874482239649774   2.2863300098998667   1.768817607295088
H   1.84887583289963   1.555201022629866   1.3873079710998788
H   2.2060167712453618   2.392416346753547   1.939729181339165
H   3.3242975707263582   2.2028186870813817   1.783685788152431
H   2.430326321783705   2.420122040480924   1.4119517530418462
H   1.8005277735983953   1.5476830656798835   1.923234928547683
H   2.4330254098519135   2.2781251953680877   1.9077308831368442
H   2.746289445675885   1.2863484458411052   1.81372945461341
H   2.37084156047312   1.616176497281519   2.786205778908808
H   2.26813521936075   2.278924834472265   1.9871848446110467
H   2.8570044002301893   1.5625417060441726   1.818045030913241
H   2.2009816216776765   1.9509044924490344   1.0423376090737597
H   2.273704307058998   1.4391666376382874   1.5287573783221498
H   0.42330609981679923   2.274996255756856   1.8719444985973601
H   1.3788587888745094   2.3750755835643815   1.527571671425908
H   1.8394016652614624   1.790290468712702   2.6750823266991692
H   2.010989695882703   1.7104051826057403   1.4941879534083677
H   0.5475842360191513   2.516220143039468   3.0839729856758233
H   1.933911041019488   2.9208060514431655   1.292665565671725
H   2.254638725330155   2.253658495652274   2.035863936497867
H   1.3625720113861644   2.0753148570225295   1.5692139212795517
H   2.250296488048397   2.2785773432872003   2.0635856887283417
H   1.3201525585532972   1.986276670892233   1.874198231845608
H   1.543519567495251   2.797831507579851   2.433373968244913
H   2.529903639252917   1.3597604241621561   1.7586378154571305
H   1.8037826997237658   1.39349742369614   2.378459569383902
H   1.6028055957612444   1.8941399854524408   3.3882438667976893

