27

H   0.7185077723301656   -0.04310121874944001   0.704504118825659
H   0.3409615298551878   1.2131532449086093   0.5401025883327077
H   1.2386179151720165   1.095570389083985   1.2361413564859667
H   0.5145036449433517   1.3041029953488084   1.7784906464971182
H   1.5743039404236912   1.1586365954930156   2.1904590171970315
H   0.9860829521946735   1.8553882063906486   2.5246871438761067
H   0.5908496138857021   1.64116089537113   2.676403707385361
H   1.1971550520294763   2.0439849326158566   1.908812195775801
H   0.6745744622727847   2.325763397609385   3.3691514521610757
H   0.6649501069450112   0.6281472690687201   1.4220095464908857
H   1.0744431704784945   0.3953177599953037   0.5871912129634109
H   1.759657417088654   0.2174038991446272   1.2893967376538835
H   0.515691187798534   1.2684233463566799   0.7514890975108925
H   1.7444422898479082   1.1895609062582728   1.0476537298125908
H   2.041844567195174   0.9493103421635903   2.0839845006022935
H   0.8529095210812382   1.5874457625353546   1.585921606106699
H   1.9033259841703913   2.0985356385643126   1.3107284625000946
H   1.8947253818988952   1.8987774594026847   2.3480899361582894
H   1.5359491837621444   0.5666785443299198   0.5834509268389257
H   1.2238494653030572   1.5239967071342047   0.9110027236634777
H   2.1913533039759807   1.2953222048649666   0.8553221884236366
H   1.58999990396626   1.0189451773323848   1.5627966672297093
H   1.661170472229343   2.129973460884867   1.6341876923409173
H   2.5605353791315277   1.82237738394283   1.5849434129175612
H   1.5163600614380341   1.9477699696116986   2.1904418624516127
H   1.3658065485413093   3.005130512089468   1.7874292611913853
H   2.268755202607854   2.787379559299151   1.661208096891282

