27

H   -0.1544790583055461   1.1744225787662006   1.1185859062601973
H   0.6325197861464419   0.564047078115497   1.2925322236952321
H   1.2870588716305298   0.3694991592997313   2.011811351463278
H   0.2944903620288464   0.7788289184663377   0.3499334657762417
H   1.3700560367442776   1.1333121901163288   0.5743945820431045
H   1.292245689842907   1.2765541060209762   1.6052140375579709
H   0.9397808138870987   0.5512789646617275   1.1256259003433822
H   1.536544910277666   1.1641585937923236   1.610707398191197
H   1.9234247654917218   0.8746156275040868   2.6060307202960686
H   0.22419354335296907   0.6922595660243545   0.40878704450125164
H   1.2570251622068473   0.9027007399910769   0.5884298672007626
H   1.6869650125042803   1.2736995043754304   1.369997285346282
H   0.4896144413231392   0.5570126836221585   1.350163971166919
H   1.5471768244404884   0.4530028359691101   1.4474472057363155
H   1.8781054766133736   1.5083711984007873   2.3208771963278836
H   0.4056931144923257   1.5103493915460542   0.998956731534959
H   1.6734130627594657   2.0904732922986877   1.2928659466608774
H   2.5761568280602667   1.8999001669497877   1.7331327106224075
H   1.1166015903652478   0.09327911279670253   0.7206585915584858
H   1.5899355065791558   0.4337106927636691   1.4876797004007465
H   2.0410846495602057   1.0122851624184952   2.183288523073685
H   1.2701874889119418   1.058122119310524   0.7365261041469486
H   2.242975956176788   0.7257794005886171   0.7182400295195515
H   2.2487325940817118   1.5724551993053317   1.4001150384317027
H   1.0347995665446397   1.4800709749730465   1.7625926482885148
H   2.303543300417685   2.383088899343066   1.961181582825667
H   1.711332096602411   1.8834160839208822   2.7602750702205103

