27

H   0.7945024269564234   2.548339170771794   1.6789265886770848
H   0.9629955035944743   1.5833785739353863   2.783899815017486
H   0.9748709814953005   1.6077557792622927   1.5820716711739236
H   0.7934584048956523   1.7988414801503394   1.0832902701135392
H   0.9467279042004073   0.9838607907047541   1.8970068777475877
H   0.18550591431552013   1.1567912912769804   1.3278106338333204
H   1.427430474451774   1.2007879916811832   1.5508281918514222
H   1.3055808348201545   2.13412347947973   1.7789960868394146
H   1.1345845394696743   0.9741658367751082   2.471594585107652
H   2.042500599702513   2.495171439308885   1.525417589092289
H   2.5605575452675655   1.5961258168641614   2.1144119870784523
H   2.2129445704963824   1.578760428750071   1.210712745538625
H   1.258899179391771   1.4389746206360754   1.8841996152028235
H   1.8466059417558969   2.3488561092518547   2.3418927316757676
H   1.4566595743088457   2.118181512093901   1.2200061653433625
H   1.6257474860167505   1.8152560032199307   0.856656572314529
H   2.015490148597675   2.6549491309574713   1.4323672347841985
H   2.0129697191066174   2.0125483114414275   2.189553752865957
H   1.5419676055989444   3.2690220409232364   1.643965722684949
H   2.2334333147452154   2.54087244276341   1.8297118692399372
H   1.420169185885368   2.3463416349294173   1.218584628758336
H   0.8354201895134244   2.3255039074163006   1.8257455259814026
H   1.5819370988243497   2.4301313401674336   1.0960190276601882
H   1.4804568024980616   2.987238096772136   1.9942131336241369
H   1.8925580428289024   2.3767212059585674   1.8030091555130654
H   1.334525139355481   3.1250523311982934   2.2644140537872204
H   1.0045517709224316   2.1164039658722786   2.199436005805075

