27

H   0.6378210175561755   1.5635993628983529   0.7220106330312016
H   0.8928201268142766   0.8622589494349707   1.4261333950831891
H   0.7029123681767669   1.715297359228786   1.9446082246555292
H   1.3519288432157437   1.5322206620478789   -0.026500584185731448
H   1.1906021277415597   1.8217018903305542   0.9298808806675785
H   1.7038673464409926   1.9433755549917662   1.8640798360845268
H   1.2546173684968787   0.5838069837464973   0.8943715574552217
H   1.3127421772155463   1.6715441518720016   1.8750921318588094
H   1.2968550041767222   2.154523941156509   2.6716201730738387
H   1.6059406013366861   1.5371728021271749   1.4025477401156399
H   2.0662620022729823   1.7841938690808283   2.38206754881718
H   2.019244988140834   0.8119275346490897   1.831118256710828
H   0.6544938873022973   1.3549206855073157   1.2709206507444335
H   1.3783407532685854   0.769717288794482   0.8676823556201636
H   2.4939470805617057   1.6490123234918208   1.3160869431712392
H   1.8083992041724521   0.4802792842087996   1.6662691013584716
H   2.003203501331894   1.3478124071774706   1.1872465804520391
H   2.299141190782634   1.6998409650185005   2.262184836540824
H   0.6769919699373014   1.9877830888964387   1.8237452218754895
H   1.260216143584734   1.2576998785739928   2.268035285066678
H   1.6734028517499697   1.8924457386011773   1.6147002765762326
H   1.357118570097623   1.9557518597329857   1.0730444293985715
H   0.6473620747186268   1.1733734071283188   1.4760497352226953
H   2.241531651967578   2.5669730895399856   1.3075522369441774
H   2.08267992415797   1.4524953102789315   1.7309790915137968
H   1.4714366324602104   1.961125055327382   2.8149902787316874
H   1.9769854052410365   2.7313054543701885   2.176697731365153

