27

H   -0.12836022786040804   0.4985642606556542   0.5880163358407371
H   0.771421948889649   1.1583297661722451   1.5561080436991541
H   1.7608491038555238   1.3840107177595797   1.968852296669888
H   0.9047490648470919   0.8396882850497002   0.19564173374909422
H   0.5792076277004778   1.6787822075573775   0.6812585982424693
H   0.9262379265148808   2.485676424666569   1.8141413236744557
H   1.2131560316929204   1.4074701809463004   0.9910110051840156
H   0.9062551166148269   2.1697318847042983   1.5197387230741626
H   1.8741081374397794   2.2807316237413526   1.387219464115357
H   0.9583873822097192   2.475754404626326   0.7162103878564768
H   1.9168531858978417   2.0508096269952905   0.7683200396915397
H   1.2789697235757331   2.1880487855852624   1.7345600500320841
H   0.640062677530662   1.564709024568939   0.8787173713996098
H   1.36539340186567   1.4703862916053543   0.1532380814941362
H   1.4273215492605282   2.391570536931424   0.5814098313891192
H   0.7856650855955151   2.3694801215776415   1.7202097159529506
H   1.537363078114381   2.879926558047276   1.480965619170223
H   2.531263232549618   3.004110507373202   1.9102289864717934
H   0.5237214057791937   1.4797705615602048   0.5856876711887617
H   1.5820024095256895   1.0883563920359367   0.9381775266715476
H   2.508648742726503   0.8497325772906791   1.4594956863401949
H   1.5495909250098379   1.482867319767299   0.487446879216782
H   1.1492467869008895   2.463764607528839   0.9800968643391943
H   1.7651647267324269   1.6231573364785348   1.4864513217021633
H   1.2075867146192918   2.3787141643101224   0.7127951759611579
H   1.8863987495904404   1.9786431343762667   1.2803957023586938
H   1.8561745288729823   2.340718943150613   2.32215048395934

