27

H   1.223178270215945   1.1286046863553891   1.8658202801294497
H   1.8170193619402852   1.657098158089785   1.0520606521047418
H   1.6924708979078107   2.0819843129640216   2.0880347305744613
H   1.516015159615355   2.1832300161608726   1.799658352845253
H   1.348956535138385   2.611230709353226   0.8495443028666414
H   2.2905260303422184   2.700416136315903   1.5709981110424793
H   2.3811985920429506   1.680680874612397   1.7397523431097126
H   2.503341633811091   2.5682572210563777   0.9299830727894722
H   1.9757688865798633   1.8511526499358268   0.8326909140758736
H   1.5357444808613019   2.227618840975672   1.4110531728347686
H   0.8063036793116082   2.0290100758361134   0.6681546697013208
H   1.0040443211353807   1.4850026602706978   1.5236740293053408
H   1.1682720607600972   1.5366805465384   0.8700812671523064
H   1.0103164721611786   1.9687153373587967   1.6584544931400675
H   0.6211025220942716   0.7134743501395546   1.1324234140424263
H   1.2898757875994276   1.338447612917071   1.8271724191862184
H   2.359657790356556   1.579381706959123   1.4776135261006171
H   0.26332186056291534   1.150957007684988   2.043987278052313
H   1.2467632467054595   2.4636115553250915   2.259640044324656
H   0.9151911336491686   1.690369410115492   1.6466207396247987
H   1.6495082314305918   2.1001036205688646   1.103383759243403
H   1.7947849205071906   1.421733767656691   2.3662097696224036
H   1.8671718378009763   1.9434145557701308   1.3682715934742917
H   0.5411659900668878   1.7791374178159272   0.9398468011501165
H   1.47162889717758   2.112298077508864   1.2478723660686941
H   1.6616109758833804   0.9355918995189288   1.2594988649317782
H   1.2739669225970387   1.3457392476681642   0.2926741201564207

