27

H   0.40316584222876944   1.4720583513588648   1.5297783113369923
H   0.7083371547309523   0.0597117611829924   0.9382649614278186
H   1.5927384378843197   0.3197268170763423   1.4922368418747451
H   0.7831293265355459   1.125130330612368   0.19884897373095525
H   1.5491471161227222   0.8027232367848206   0.6534377591782191
H   1.3649994224203592   1.2877007222414905   1.5323413184072223
H   0.7727752550104189   0.6503803718854763   1.0993112355773842
H   1.6559426597438147   0.8985473578066524   1.6332389642504905
H   1.6475265057942965   1.073186342923565   2.6017562800953145
H   0.008512553013999134   0.8329738914942633   0.5530727289466957
H   1.0538216844880668   1.066238671121665   0.7650378078505364
H   1.8029455875489   1.2822448768633419   1.3411130365929476
H   1.2761638475080102   0.5549226873292331   0.9663496086397007
H   1.8265165392642433   1.2840852508174736   1.422045628825119
H   1.8509655895752162   0.9198228062271178   2.327966569736217
H   0.6381728891974006   1.6461464983583933   0.9898838146163609
H   1.0565620392083337   1.7057630725008082   1.8107797793431346
H   2.390881390151054   1.6311823936302088   2.083697584147884
H   0.974719826919932   0.6346123447668044   0.675103488630408
H   1.5448436020329765   0.49234814871963706   1.4456989998585195
H   1.7525829649542821   0.7825647492155766   2.3807409316581465
H   1.9149444382272958   0.6908411652245314   0.34839264632499567
H   2.604074255222735   1.4080946418172995   0.8326032142897352
H   2.361168834081983   1.620623951366559   1.8571350929311157
H   1.7596898650422075   0.8528392365674273   1.3230396620763056
H   1.8606462502042855   2.2934551164721184   2.347302900184441
H   1.4098662244028382   1.612624386479943   1.761898053833673

