27

H   0.6768518873188752   0.20934942673023632   0.6665755341975589
H   0.8983044155997931   0.23586136161591298   1.627220403944021
H   1.7948599121257025   -0.14118664684945587   1.7716154628654288
H   -0.018604943876583957   0.7806005831526786   0.9874754945542557
H   1.0567372688309091   0.9042682450513723   0.7648055111265988
H   1.7782372660073602   0.8638431865205571   1.6727561675595337
H   0.36320987548128003   1.6231451189764006   1.431029440958058
H   1.2313362441622417   1.1643105741078021   1.7188917722854367
H   1.7464853591022533   1.722564011632873   2.264397335822034
H   0.9021971057877096   0.589206923759277   -0.1318726542569638
H   1.4213229070984112   0.523799277710537   0.6937645214717089
H   1.6033231479448198   0.8800695072878553   1.6497117201323086
H   1.0434814050272012   1.2320864740432595   0.7081467969764351
H   1.883366175092748   1.2317851751834878   1.1781662027729878
H   1.6492122356631904   1.7518315866032474   2.0633513129976864
H   0.777175204424629   2.1812036655716383   0.6107878957557593
H   1.2902318884748107   2.1062449575771414   1.4281924453317583
H   1.3654057198391096   2.6167403204972697   2.434100658144604
H   1.6924044011851103   0.9239754935161549   0.4043511781490274
H   1.688581097663462   1.4853630204547688   1.3391386842730422
H   2.5749188117712642   0.9486070344954374   1.721232099382766
H   1.6607768022836893   1.9362011601800255   0.4572444019469566
H   2.4971083795018507   2.0819679001419344   1.1564432037963182
H   2.5936201492051163   1.7639177596958135   2.242135953306889
H   1.258442243579438   2.1567851576682693   1.4396496184147876
H   2.0607154800676626   2.1920901057597875   2.0379424018736834
H   2.239544050301496   2.2165623373112626   3.0601379018940515

