27

H   -0.0535734413489887   0.6286880283151097   0.4794095210820977
H   0.8873592611021168   0.316530033028765   0.32766999645117095
H   0.4787683985002485   0.5982473669721549   1.385981959674835
H   0.7817881912787032   1.277086663847463   0.9442464662147378
H   1.1685678355620646   0.2998558844671948   1.243710327858248
H   1.1770196789784313   0.7967027305929636   2.1061526183260044
H   1.696912894317239   1.5070429771334712   1.1047664796902523
H   1.2329430162064172   1.0354633248933875   1.91499530572094
H   1.659931204203849   1.1793695999640115   2.8876919818465683
H   0.6679174215850208   1.3090442505349449   0.3377882201136371
H   1.5450092170977185   1.0528706903569691   0.3828914527086292
H   1.412503181479487   0.7350150973304768   1.265461369154535
H   0.7211073684583332   2.247799923383321   0.6000215497885946
H   1.0109744222300263   1.3418289525343918   1.162418250066467
H   1.69118359126657   1.6066971830017989   1.8955541437376615
H   0.9211021777477724   2.004863902731614   1.7066479164919088
H   1.8700859076267191   1.7522231863375528   1.566258805633146
H   1.3916453040203083   2.17687209573072   2.5674460393924807
H   1.4777989153899   0.9924114986778321   0.7981888457288009
H   2.078004226026142   1.9100871074145271   0.5042396668086038
H   2.094131651629103   1.430757643199566   1.363845955519612
H   1.5958548857533605   1.9309264741893306   0.5347125399279913
H   1.6133524283591283   2.0853723706340688   1.476260922148787
H   2.4786040814043955   2.2191291000527635   1.9213466340396448
H   1.7644034895095393   2.5252394188315908   1.4695687489437348
H   2.6839134264107907   2.212385215230662   1.8749575750051428
H   2.517269634228397   2.760538547966398   2.676299000821308

