27

H   1.661682579029712   2.6908137737190243   1.1244660581938175
H   2.141899299698005   1.7891816514611114   1.094127524761908
H   2.3085202887466574   2.409884110014684   1.8211363495148276
H   2.672398352773641   2.4455852153209316   1.246812358653853
H   2.7233112759457647   3.232192840543075   0.6049688410303287
H   1.824704860475541   1.761647729917713   1.2864764967377011
H   1.98155602635132   1.8446624393503224   1.561062318121981
H   2.58185067064583   0.9279710887899799   1.632133141852975
H   1.5381571510074104   0.8906702447531757   1.779730673407639
H   2.1481798007864663   1.8067973972300015   1.3351077040730064
H   1.9997660943634221   0.8359396194993594   1.6318079358134272
H   1.3029540927182377   1.4030340727082096   1.947332481471556
H   2.7631454061178338   0.8665447009767058   1.2619089466622417
H   0.7326129665346957   2.880553052460852   2.607664099170745
H   1.2452214105802946   2.4253785564271624   1.679524392050498
H   1.848237077549199   0.9777247229502283   2.134164543802475
H   2.0767983606226723   1.8758242370699487   1.3230207596328276
H   1.8758340310636095   2.0704565869544926   2.4562415350622024
H   2.0547175644072575   2.551194341877146   1.9810343462630913
H   2.5790246529528216   1.5985096769410498   1.8699668262242493
H   1.8043211917346966   1.8260208309214712   1.2397995437478542
H   2.1695478614767723   2.413676375622419   2.989796993234645
H   1.8495304959859395   1.8373920991010422   1.2873078489478522
H   1.8160333314611217   1.858236508597741   2.202193633669835
H   2.56380799872069   1.7574124469509844   2.3487020810436334
H   1.5959224280709146   1.1319769276364475   1.931838962240615
H   0.8755719507012868   1.9008070501607937   2.315937899221767

