27

H   0.8015519498220701   1.0206353975474036   1.8253658228335612
H   0.5143321869247968   0.34110852530692376   1.1155338060469182
H   1.5519756658834107   0.14061313248628338   1.5454941976491314
H   0.4956580233588766   1.2046226713244517   0.8921280671906845
H   1.619043654780384   0.733000849539245   0.7053215142738075
H   1.2410282423098344   1.2158651906668807   1.5396177644119373
H   1.3571985871591818   0.6334914694383641   1.1111657627086733
H   2.0199440073533204   1.1461423370212735   1.593150491556328
H   1.3673159120108513   0.9478589854798555   2.5216267520442495
H   0.2132178705611279   0.7405201365715249   0.9173634672199839
H   0.774881178825211   1.4982385375831337   1.4815125042144344
H   1.7145897413605662   1.0945013755250055   1.4151971197774913
H   1.346333551088643   0.7182313822046146   0.8736835566524439
H   1.7000897851017307   1.1102881828685962   1.7323494754917992
H   1.9292454252274687   0.1523814615552638   1.8027135641709653
H   0.6750161659152725   1.1844021095129713   1.6533811367001365
H   1.3702601035722297   1.718929258259732   2.4195922429719685
H   2.382660574109429   1.0228671105246114   2.420599614121264
H   1.250119897073709   0.7491865678066214   0.9132499161426288
H   1.5722340104563914   0.07180411556445479   1.6232915330011566
H   1.4549382187487803   0.7042244011765157   2.3536011287759817
H   2.2529903896897348   0.2908737067262012   0.6216471489104689
H   2.432188403513689   1.2485448893888573   0.7324965829282127
H   2.3315025034237022   1.0662703792951644   1.726844798720519
H   2.2735570170321466   1.388805635282515   0.804438873562283
H   2.276448030391253   2.212319991920624   2.2073458516225344
H   1.4415791214539386   1.5810136026473254   1.8447411280697343

