27

H   0.5944300354991414   -0.21644101302783533   0.3814656371490816
H   0.6873522695079399   1.191662195298256   1.2326106775938541
H   1.3353275775435822   0.9745776105152001   2.270870338672079
H   0.5320346890130105   0.4602006712776093   1.222799122890387
H   1.2150356892724765   0.7926833343783407   1.99036702200209
H   0.2814250288875669   1.333584889237471   1.8202451757422955
H   1.0712428344858897   2.719303274873219   2.0186804394367703
H   0.7605840702767063   1.8168768662221901   1.9778693507997145
H   0.28667510183887573   2.407852926897833   1.444340243614831
H   -0.2393413403399051   1.5558609798776177   1.1772099023861025
H   0.4786021201178514   2.147318973019552   0.9108978514200405
H   0.6058346049841511   1.405353395074656   1.6711049456775804
H   1.2745063189275327   1.126926500373655   1.006430051617692
H   0.6987486507469634   1.4834805779367408   1.6928197438890626
H   0.4276063335018858   2.2113285527518802   2.349345843296826
H   1.0254019958424767   1.6781424462871315   1.7856842074425159
H   1.158529536496561   1.4943185365770941   0.8196598063243239
H   -0.3322756472122845   1.5490461860626528   2.0816575417392884
H   0.2968209519651087   0.8028065355499057   -0.09892459383349392
H   1.0127444840834203   1.5067670846136259   0.2843839742427222
H   0.7342402245707768   2.2462523431244654   1.0846334972038858
H   0.4999564646238031   1.4144495528366121   1.5498518579007083
H   1.4510016140758757   1.2947334929008405   1.1698979820463964
H   0.5560625327592418   0.8332961620457077   0.7565788620012115
H   0.14293562984515668   2.3003321544549697   1.8751453903722732
H   1.1252467166727034   2.558699779192319   1.2218229117047907
H   0.5456791318810833   1.4338750181659838   1.589082880123009

