27

H   -0.1418721949050466   0.06127989874295363   -0.024232705191639288
H   0.726221448753133   0.05616928396090534   0.670705685968162
H   1.51963391554798   -0.09524806049236048   1.3906553424723718
H   0.05400045533847109   0.9504733404156864   0.37163027794800274
H   0.5769904249447275   0.7869523582544435   1.2367339218939586
H   1.5040047380603336   0.545726604038503   2.266961902056905
H   -0.09747373851857757   1.5450286963358757   1.2058282549360657
H   0.628301906456616   1.371510167560549   2.062758618677654
H   1.2879618883906228   1.6727796380472246   2.750124544205436
H   0.717182725895571   0.7769525496532128   0.15517847148508646
H   1.707907914777365   0.49119907334780066   0.637344920666628
H   2.180147182700832   0.5361950761836165   1.5812059130270275
H   0.7257890070304835   1.5832879504616488   0.8231010176696579
H   1.493970344663903   1.3021736168850087   1.3719408902013257
H   2.0273140864736843   1.4679436731173299   2.138559397366397
H   0.46835860859064626   2.1570779660167134   1.7288729001391616
H   1.4562508856685334   2.0421479143675243   2.024115071080975
H   2.1510760566788023   2.106685342677847   2.8508029984284344
H   1.4656253123065712   1.468036060586357   -0.2813248938742063
H   2.1862821121120493   1.300907949840757   0.513582784972341
H   2.9295401557584455   1.5222807147394275   1.1970619876953081
H   1.5406978522627914   1.9704506149078507   0.659236955231055
H   2.3594703483238115   1.9805337292466652   1.3002306513818804
H   2.8054523610635806   2.1029772581946222   2.2345287556321596
H   1.388541401166612   2.6258527857008342   1.3686569049996187
H   2.0822665474872757   2.9486846490837757   1.9595943802256215
H   2.7734506557180794   2.9037265975522732   2.9457328746056373

