27

H   1.3192265747769136   1.0562997957426827   1.5333998674949054
H   0.7346621772144022   0.2671841163107799   1.2131461379277029
H   0.7706002860345682   0.5809138331046493   2.252669025849394
H   1.2344174359717373   0.3287712799456421   0.5181789325344879
H   1.5900879235128715   0.09157330147512868   1.6937868751679213
H   1.284432550388624   0.994172314048296   1.5097441975272974
H   0.601106016653501   1.358681600190769   0.9346296386169186
H   1.38561780111106   0.9831169466950312   1.4594754583615581
H   1.358459804290452   1.494784445418407   2.3228564767087727
H   0.5318748388643492   0.5652777970479923   0.9961959529856701
H   0.9125944177350851   1.1688823691483194   1.6902803417684886
H   2.7312415758100865   -0.17228675119157771   0.7075979521806419
H   0.40249412988509414   1.4638262760645255   0.4760983472282837
H   1.8410796697468153   1.0432491036499751   1.469654140225607
H   2.0283294172024062   0.17710765367871018   1.2344427217207208
H   0.9746756875317676   0.771839018207625   1.8740458543165563
H   1.7185045909377465   1.4244237887008426   2.4259085892129035
H   1.8604477683077238   0.48157980633458125   2.1678815677120213
H   1.542879575841953   0.5981768489718018   0.5329114581407616
H   1.7509343458246953   0.417016337918031   1.4985189713331462
H   0.32046188738970516   0.04975924525424652   2.8357570325564105
H   0.8343795105286178   1.033998444941074   1.2463696384651972
H   2.6934881294451687   0.6346911193697672   1.0188859171046631
H   2.203359786549964   0.8607024546767147   1.8564372183202444
H   1.5801131361095488   1.5110258934917917   0.8741879506168572
H   2.2859125521236505   1.2645577322976025   1.5507750285440636
H   1.1718145711569838   0.752494987092092   1.4255560834142256

