27

H   0.5518398282840326   0.4793498603522846   0.944372960921957
H   1.2449098826709297   0.2123785712051862   0.13033164305340406
H   0.7996804458230579   1.4011675815221427   1.29694166445241
H   0.6865535169911502   1.4276363689956675   1.2889548705076461
H   1.1589830974104944   0.6220399467732638   1.2904283097940545
H   1.1862298930178525   1.2915203717843113   2.214792441034121
H   1.6040927700988048   1.528083523010019   1.3974339489727725
H   0.9790639871695793   1.0786788800577263   2.180504196766859
H   1.9966898286101207   1.5362079625810774   2.6644893174527855
H   0.2715997402958804   1.3221142104009829   0.7327384984545233
H   1.338029169551168   1.1672020744595226   0.4586966754489863
H   1.5225239675370799   0.8373402140867205   1.6443006600844547
H   0.5686751571034743   2.1951465397429115   0.6008984471023946
H   0.7664291512551813   1.5679086067811727   1.29128417482876
H   1.6926130759042524   1.7644518770743554   1.5080950646293687
H   0.7421249170853826   1.9116566927791296   1.4945308795665968
H   1.8085574464256682   1.4284855641897694   1.3933954651560143
H   1.8304670974059611   2.4614930990594655   2.377123671332829
H   0.9893788353666498   1.2376569460086122   1.4302596756026484
H   0.8989991641772583   2.1678130709767625   1.2650846400409506
H   1.7954049069409144   1.7453589048714453   1.11689671260292
H   1.3960289177332088   1.9738079674122306   0.8862046151798916
H   1.739785776774969   1.524881846172434   1.6542337297908445
H   2.698009247105627   1.950284203539991   1.4977042021655889
H   1.4909361072460074   2.519876789614822   1.6701358811485405
H   2.2910224448577927   2.246645631946511   2.0143673273362586
H   2.4130699405224108   3.2772031140063516   1.9822604400214416

