27

H   0.8138109900181012   1.972038734263343   0.7773120077909393
H   1.279427692004712   0.6820768396198811   1.0586089306154556
H   1.6200178123751183   1.3715277887906578   2.063570454497152
H   2.0026216938841372   2.0382739486534875   0.6047351857838635
H   1.0393618843207246   1.6353089325967411   0.5949025916685752
H   0.9451781815828683   2.3011614397756857   1.460319879030827
H   1.3549710207875978   0.9257760271349668   0.6303242806287762
H   1.1406046587065193   1.2760846068607803   1.8299015138295858
H   1.1353213362471655   2.036002602176505   2.5603359190339754
H   1.6599901324913915   1.6310842412425346   1.120641146725847
H   2.131667150097028   1.8547956152023142   2.131736910675116
H   1.9242589015796954   0.5995250198157619   1.3511271995229404
H   1.1796293972976781   1.5503370580535953   0.3344753471376211
H   1.1767300930895692   0.6085892325558886   0.8277750413079492
H   1.6525353141293917   1.534888021305131   1.2259496672776933
H   1.6215176353531795   0.5424419433310781   1.654825150670076
H   1.8052908114455781   1.4034603162273562   1.0954216486044395
H   2.178604979496885   1.340710677534685   2.0209658487355284
H   0.5866799024552473   1.5392662624622544   1.7602324044460125
H   1.192444215182635   1.9908221871180503   2.6266529242100463
H   2.354553031960692   1.7171172811623152   1.5798214126572108
H   0.9798778645898127   2.3869839600188176   1.0396937901122516
H   1.3203645914742594   1.3175153666542756   1.4386359746957194
H   1.919850551147219   2.6254499910518683   1.3695996405978856
H   1.5858116163058287   1.5508496990011138   1.386162798308922
H   1.3629762345119192   2.4335494198446805   1.6711561914288708
H   2.1174846156764335   2.3183259890541783   2.4107696491508723

