27

H   1.521294018508927   1.9005313734127849   1.8517816371114475
H   2.0120282733936796   2.4688070679475365   1.0830983330420463
H   1.9614201123864832   2.783765717673672   2.1051691322207806
H   1.3062836463176406   2.9647309673658477   1.6086348099199839
H   1.1406831353346518   2.412162762761183   0.7860110674843044
H   2.4941557326561794   2.8000765121878057   0.8239947483340547
H   2.536865419934494   2.0109601007422033   2.175794914502927
H   2.941722755392449   1.7341101012063307   1.0619544365780842
H   1.845778474981665   1.7666951945640772   1.4944074179707867
H   1.9741046226010326   2.4055086881463885   1.1349576348781132
H   1.1363536504691514   1.9512655858109456   0.8210988284572441
H   1.393721477417447   1.9671984758425   1.991463345481614
H   2.3039998404317763   1.3927888048594717   0.7641271178900261
H   1.7127090097208322   2.0952773960590285   1.651638656412535
H   1.3811330368607115   1.4680051762082107   0.8770478628737429
H   1.2235997349963337   1.2336299699087268   2.415678517168783
H   1.9260095172405671   1.2555757071553242   1.1136428798594127
H   0.570606266251128   1.3176325237715407   1.6505447544657823
H   2.2906695399817143   2.364776329335777   2.14577743490787
H   1.5274708722125294   1.6517426355632387   1.8844253086792282
H   1.4981182659477217   2.4301109174999476   1.123263504968106
H   1.251940357532011   2.2336838975301236   2.3238164489751694
H   1.5077905846015391   1.5068956430785518   0.8619148733778006
H   0.5079208084447677   1.8556918785473961   1.2240775240118726
H   1.7584300199764658   1.6516272583860052   1.5957332483156226
H   1.2005338072379528   0.7308258218493144   1.476112293686818
H   1.1997310629784956   1.4472400909064511   0.7787632636985548

