27

H   1.2253739309800051   1.9580251987434916   2.1610540495668933
H   -0.07057143427965011   1.4512759412294576   1.3815246689610001
H   0.9120313831898392   1.1568603261429813   1.7402087180076964
H   1.613121420636316   2.0143727922631274   1.3064505811265894
H   0.9051762364942139   1.1667264781072426   1.457288321854493
H   0.8502986478961547   2.100202471484873   2.033251087696079
H   1.9039488934689919   1.2719958435757932   1.9479969358417077
H   1.218004166789726   2.0456043751278012   2.066776241828541
H   0.239366767795254   1.5140157957835463   2.3275401705348795
H   2.2943700982745048   2.1442209388759164   2.101411174021385
H   2.6509268653433313   1.4787981589797115   1.1669855080140479
H   1.8228130828362246   0.940187855687027   1.8339311764263073
H   0.8630434016711314   1.2045310402101834   1.6272905416763865
H   1.811913829292163   0.8996817977783915   1.2437557606943772
H   1.71701089756757   1.883520510463363   1.473159609272282
H   1.5406736535096897   1.4414767213946529   0.939656776473652
H   2.1966462790597285   1.9568192011715024   1.922851839105913
H   0.8983198572211444   1.2676888967279445   1.6471703931343944
H   0.7255581610001475   2.881544760800566   1.777209036612075
H   2.440136339538104   2.3776465814273045   1.8230400648381517
H   1.4342294978956474   1.8340481059872253   1.3986902624099036
H   0.5178426961685512   2.0428403172868213   1.3974196315934104
H   1.9480139215017602   1.9858337546918998   1.1748525147253186
H   1.3416218081119442   2.849787001758424   1.5265685604571038
H   1.51861192407128   2.1545089808972873   1.564909901497044
H   1.703248565546904   3.057148773583565   1.4830677819881692
H   1.262153006224927   2.5948324228366677   2.4676903474871255

