27

H   1.3453308470190297   1.1312408150645867   1.5721896646580655
H   1.0016550530143091   1.2842983659739462   2.573651461996104
H   1.1085900019166814   2.0498340957452905   1.7798395241052059
H   1.1054726187824784   0.3753191876853298   2.312045676136027
H   1.9481464913651483   0.7847244720979148   1.9575162605417888
H   1.1299727496001755   1.1726033870467363   1.6006814694499116
H   1.4429273292817408   1.9568546350811902   0.8275834823879643
H   1.224626697773754   1.2258115251497588   1.48899775702298
H   2.0359528661858497   1.6837997355722878   1.7935263590356505
H   1.149217628250007   1.1915807992910985   0.551604958582783
H   1.5860312141960242   1.918722656350428   1.4838812032197817
H   2.005247656284716   1.0513032982815502   1.1647252176315566
H   0.6484644789336644   0.781343725040346   1.3863221341112668
H   0.7947122319129002   1.6876040231919123   0.8945087343356426
H   1.3523234982396943   0.37860975231589206   0.8842374811694874
H   1.696038297277404   0.9973826063520046   1.2845582799081627
H   1.9467483254264915   1.7044154049343598   0.6815402668576181
H   1.6725638973172183   0.7410129801241876   2.4313176015149205
H   1.3281483700472194   2.052169288705909   1.422312719792987
H   0.9714904657741475   1.087260858360353   1.5938840656688298
H   0.16402853596331374   1.8278977367620708   2.0242283169278283
H   1.2021929491380103   1.371093539678056   2.0927437533862614
H   1.7668483777904176   1.511554667742477   1.3200741352492273
H   2.0261957760246294   0.6774072121664965   2.064886992367647
H   2.2330417962406726   1.4328787026852978   2.0425368405344173
H   1.5756119223017913   0.7016537222238751   0.7994950849110872
H   0.8215150213972421   0.9364064434949311   1.6548795579215971

