27

H   0.07785884232512018   0.3539479500827863   1.0471858369607452
H   0.8990687795498532   0.44354904164569875   1.7434931586161637
H   1.8169571742648525   0.12645191719075485   2.1463158236276247
H   0.3353669893435238   1.4196601436933032   0.6770520266838683
H   1.1321809797506364   0.7142060460848774   0.8568984566827198
H   1.5798458107415803   1.039356181300013   1.7203895242217
H   0.7927878354655685   0.6898916503769921   1.7112684737360428
H   1.5962991189654452   1.151289751770671   1.9181911724415752
H   2.4167476732172952   1.5105344783375347   1.873660547215085
H   0.5345832121963157   0.8187956504683838   0.3397132713288301
H   1.2662090553172172   0.7711529618199388   0.9078963272940227
H   1.7336519777089294   1.1400158300767995   1.7178007716380645
H   0.6949881144541769   0.8266865376587111   1.3443417087934484
H   1.68595444029552   1.280844417705332   1.6314933674205687
H   1.6286377243916113   1.5807673198761678   2.580430764535117
H   0.7970068960949116   1.6398215300565535   0.7103005470462569
H   1.2787428064244444   2.1897781252073396   1.4608654170333204
H   2.041143306952545   2.556591124118496   2.0208492963832123
H   1.3130539036721685   0.5211948938636759   0.7756872640214352
H   2.106622387537017   1.0428588986606413   1.3888436739019336
H   2.498778995815719   0.749599539285184   2.3197360865405443
H   1.256974094366273   1.4419676435857711   0.8220649390764972
H   2.8267981048883346   1.601245202422372   1.2789954920513347
H   2.6453389096000133   1.7933332066534697   2.297412673866713
H   1.234474489393392   1.6515756775494592   1.734186145467852
H   2.161907014179272   2.0894753199394103   1.919291327107198
H   1.8225363784623116   1.414275020417368   2.637412449406587

