27

H   0.6455670832134862   1.9048984874836927   0.6376058964463105
H   0.627297091318664   0.6768416767786771   1.2380367013156643
H   0.9130064830083494   1.6110155399927937   1.6787861694231776
H   0.7061390007956074   1.0699478309089479   0.16096616821060206
H   0.9104415264565968   1.7404603126950657   0.9116363085536227
H   1.6775166631741176   2.1160515463209046   2.0242635158798503
H   1.149277833633069   1.0673446806738305   1.0793625170569128
H   0.8668798046877694   1.45503110508407   1.9280560925796433
H   1.0565058352463934   2.0921254945674272   2.8917260017537694
H   1.6267196955411232   1.702462904128266   0.42339123742185775
H   2.1275488234908493   1.42324212034615   2.386435429921153
H   1.9511773053180073   0.6712520206985565   1.871048740756109
H   0.8897747790252684   1.4002460823485565   1.094686869299735
H   1.6619462371369271   1.1447451878290964   0.5214117917904649
H   2.0970032713587567   1.4199881076790952   1.2995854465603882
H   1.9546195960215658   0.6171561780620758   1.5073878162708838
H   1.685560213047052   1.6298094761050153   1.3798638128692906
H   2.2187672000253302   2.2309668775687364   2.0606184474085776
H   1.013280535778247   2.233612423524114   1.52909938569185
H   1.0324930253046538   1.255606277476167   2.049186284715537
H   1.8281607649429916   1.8012840742810416   1.930301449322507
H   1.6655673662740833   1.9661963984211683   0.6796141811839391
H   1.073276303771614   0.8452310004931652   1.1587471422335824
H   2.460048452314113   2.43739572334496   1.4133708936367342
H   1.7982603514544095   1.5428639078095192   1.6020813054240757
H   1.7106166643978442   1.8383944914292953   2.5351270426280608
H   1.3947331005389396   2.7456944081985633   2.097184647954779

