27

H   1.0445775851074635   1.1841470352331167   1.5039209124731379
H   1.4546478123448545   2.096622389755855   0.7786722359660578
H   1.2100348828157352   2.3068584205557268   1.7956320841273612
H   1.1910183822265001   2.182323924348143   1.186490517096161
H   0.6413019749975071   1.7056035492432724   0.4288033050470229
H   2.0878079681975152   2.614753022338902   1.407461598349778
H   1.7233163785512102   1.6948242838040524   2.117251995189903
H   2.675536393313181   2.2082601458102067   1.7632988522428168
H   2.8784681435128596   1.1970377053029448   1.3773096432873455
H   1.0537041060405203   2.2374916441765325   1.4170815377210917
H   1.0136890100066913   1.2654863938835608   0.4983048194685658
H   1.2538666435919477   1.3258197005186625   1.4337498496074668
H   0.477551523289753   1.8376166744292284   0.5306921474807584
H   0.8230977089365805   1.4460673206550847   1.479900815007346
H   0.15888091801646687   0.8498517091423556   0.9458078331349944
H   0.8967342318267719   1.1522301821521637   1.5766217628301846
H   1.71632864891555   1.6447990848146818   1.9945954684800624
H   1.8604352647647653   0.5827378228756479   1.6979762956227071
H   1.3999179533933561   1.7513390460721237   2.208094295214951
H   0.7267437801272101   1.8305034024992828   1.1830394626698084
H   2.0737365098380804   1.9440495223613674   1.4982358778732978
H   0.5288733160441009   1.467347535441371   1.5348692115615732
H   1.357950347366727   2.0677610095087613   1.891875218355892
H   1.1521418859007317   2.1836257794398612   0.7609945837536773
H   1.4443261978847461   1.9195087400003483   1.23786710499508
H   1.077232152212421   1.051170547839825   1.6343587504107167
H   1.797682661060404   1.0584669977797707   0.9077593620106872

