27

H   0.5870993773957633   0.5171841665992671   0.8853245863443924
H   0.6172923524162761   0.9074067046177928   1.9549502556430536
H   1.406930106215877   0.14604345046291933   1.3992510029099423
H   1.1902766326594618   1.165087443455992   0.2243839011759392
H   1.192216641923   1.5980856504697143   1.1023832545161052
H   0.6240194140248623   0.8055191176584297   1.6658602550796593
H   0.9138015374334485   1.4204176798414252   1.1906763884692109
H   0.5338667702287703   1.8750879048295694   1.9772086255670378
H   1.4068893378366247   1.5520362594252926   2.182764991022477
H   0.9937507927224547   1.0996213876008376   0.2193565095074446
H   1.4177803798439454   1.082648091635357   1.2571514624722593
H   1.6112704669727933   0.9317349316534125   2.31274519733475
H   0.8666473721399218   1.7823881218312267   1.0532265629998023
H   1.8951285553933295   1.724571085324161   0.45700385234045765
H   1.9218292706114524   1.3774585096454801   1.4034137628231036
H   1.0429950674741408   2.472300916217922   2.037931144683055
H   1.2569436044641233   2.0751663185619704   1.1831349174820605
H   2.0183733188547763   2.480590821649175   1.888584118843673
H   1.3575351021580695   2.0193825350964305   0.13277278782241195
H   2.1072948588584968   1.268974880516542   0.41777861901680785
H   2.211536327146494   0.7881504695904522   1.3797015622625461
H   1.9084215808596974   1.4738372988379627   0.8014943834473334
H   2.668198431093446   2.255327556972089   0.5693545053976113
H   2.8719278990849726   1.5095294860776673   1.348427016147889
H   1.3966517572102093   2.2455952079162493   1.1348183513314056
H   2.3121282011672095   1.753913807122028   1.310412767374254
H   2.1838410561525334   1.8436052886006409   2.5778509193041743

