27

H   0.49366299652823215   0.9871884919328597   0.07376217467493094
H   1.027463727418851   0.9033175388222375   0.8832949282341597
H   1.58674346537951   1.4515495960336133   1.5857076716744276
H   1.4592582044967461   1.22033252956092   0.17095636519378607
H   0.5889591060537217   1.7659802918888985   0.30061627105464866
H   1.0544459616343604   2.4955930340958496   1.5024227218677897
H   0.940616808366191   0.7723223016013983   1.0301765664187053
H   1.1128490602341548   1.8986607970077722   1.164390293368983
H   1.9039310175034059   2.3240492745536585   0.983745077687228
H   1.4283957521808037   2.1793988451954514   0.7058190407658392
H   1.637207714513871   1.5606616941823912   1.3698733241328844
H   0.6516690488793094   2.041536649069345   1.41932652361879
H   0.5442557070874505   1.8477924558168222   0.9315340765630008
H   1.0606180594148134   1.1018859846492315   0.6833234270030071
H   1.5606405397946181   1.8049243390096992   1.1842169207093902
H   1.2854270294940984   2.0386072104745274   1.7074585246373666
H   1.9306472779952815   2.3948812396327357   1.0161167115815692
H   2.2417600730586873   2.080644443126504   1.9410921529666294
H   1.5051419408416513   1.046121759020546   0.3380957237523804
H   1.968660001904924   0.6056061753073154   1.1820955969322866
H   2.173812014337253   0.9242345002749999   2.1510476296505114
H   1.8303942573255603   1.5709308940396374   1.096139272797845
H   1.5546250052407824   2.482322601275613   1.2495219957397203
H   2.2956258685372557   1.8671956503876461   1.9396545363770747
H   1.2368746557579091   2.2628313385659933   0.7697793976061562
H   1.9098121348675485   1.7323841614551183   1.7821829447847837
H   1.485598235875036   1.6846962700005232   2.6602802230566898

