27

H   1.7163386798056857   1.1618429410022322   1.1878592831087489
H   2.2652251186497607   1.8898169760597154   0.9074170818217073
H   1.2583631064577334   1.863551324875165   1.8252863000067463
H   1.3023645703719464   2.050357868211112   0.8436040375767193
H   1.5395372169041222   1.216356897674828   1.347405834504854
H   2.3028983164123913   1.2984223513901085   0.6994962614768159
H   1.0297328356021058   1.6718331382226919   1.8955812214678802
H   2.0376525655005677   1.7656064530577522   1.9782563566406033
H   2.9965756044718477   1.027186633687324   1.9791889445282254
H   1.1288444973400191   1.701722314946384   1.7127189174498796
H   1.4063129142291892   1.5403912920360174   0.535074084122173
H   1.0614968430222498   0.6550709023296304   1.9873038784818609
H   -0.3464074923210897   2.0979814078282564   0.1691560113148134
H   0.41498063312351613   1.7142892156147742   0.8126485904254377
H   1.1905858156677402   0.8258829187489891   1.030663865861431
H   1.3784267665356231   1.3900725585345248   0.8753298436306383
H   2.316528936921424   1.6867641014408097   0.9908956236785994
H   2.252723353353002   0.7926151797873443   1.5007681319290538
H   2.046830534953388   1.4374237307349855   2.1577241407996453
H   1.2785432323275212   2.0921039808871664   1.7581857546998916
H   2.195181051029808   2.3864138911195525   1.7450945075778637
H   1.3799180229567698   1.2612198949134628   1.4820607177473675
H   1.4696705989889767   1.9777108976758244   0.7669332829277811
H   2.3987843120218075   2.3279879330564226   0.7411849955585202
H   1.9161557402651042   2.1056912512498727   1.2907400623249294
H   1.4144856848292273   1.2276403869315993   1.42346663460287
H   2.9936880839847935   1.6202892614093212   1.1586193251533283

