27

H   1.2693487592737878   1.8363682549879585   2.4901285798230353
H   -0.2346086983847541   1.2619507438083406   1.412973097716753
H   0.9791629686432789   1.0551789184471454   1.925351875219829
H   1.6011466770919096   1.8777009965250302   1.4334427916455836
H   0.9069683592592969   1.3513942470761753   1.2334255484974015
H   0.9268261578724022   2.0976789461973335   2.055537470248958
H   2.0196013347795247   1.0424215617345371   1.8097257736933803
H   1.1330274310599893   1.7400021982091822   2.140327774319785
H   0.1630314196922072   1.3776732072004523   2.3267715066005747
H   2.0098474516816682   2.4791000974165978   2.4801194389621313
H   2.769634680570174   1.4289288295807365   1.181812754965598
H   1.9540068660545897   1.1575396158814513   1.9420234618063819
H   0.9013240973962866   1.0191420380579892   1.398415939246636
H   1.885245438729596   0.9435452998592974   1.1149410826853625
H   1.5754893319398127   1.9777336313058285   1.3361344170592098
H   1.6672518381588912   1.356287462764473   0.9361714888426109
H   2.070527020331733   2.093208984898879   1.723616870311671
H   0.9486816054280575   1.282329458553067   1.5784536353236747
H   0.5688477930200143   2.8564053445989175   1.9433836990876459
H   2.4438328614809297   2.5302695958681953   1.6198331636133436
H   1.3393785769951314   1.9317057099521704   1.5821132465046948
H   0.5061386327258208   2.02075049363783   1.4181498779290034
H   1.798427274886839   1.8804538542774571   1.3517334188619772
H   1.163211259767433   2.896868587224803   1.4803429938710435
H   1.514298963107505   1.8827267744528229   1.7328089332408294
H   1.6262973670704397   2.906242607499852   1.3879427607965895
H   1.2711240995653788   2.5886743582778955   2.357776590310277

