27

H   0.5174071461589231   0.18179749398202444   0.8669806326644772
H   0.9641583197031405   1.0316370469719858   0.6631434173781936
H   1.1436307894608995   0.4802755273579953   1.6182214974426345
H   0.06481411968202963   1.1327663070212488   1.9896060555117103
H   1.7661563988364497   1.3678471176252085   1.881977162021855
H   0.7906553115176158   1.7932184703310807   2.0102924630202947
H   0.4409302357551033   1.86651320176952   2.5372231136575127
H   0.7512830117695071   1.7233484657296871   1.4695968698583346
H   0.8648352120493077   2.765349003772639   3.155594492956557
H   0.5708544632405804   0.8840342893267839   1.5158263299175738
H   1.3142220362947261   0.3497206931744925   1.3600964210916178
H   2.1840941990970606   0.7378923003001115   1.6685033598584222
H   0.2591265138108673   1.642143096512394   0.8852246147411912
H   1.3142045582107185   1.2575473686381842   1.0230535702548826
H   2.19349676903634   1.3219295393857684   2.462301155043982
H   1.1383790355390258   1.5953993870228103   1.521420743330983
H   1.2104627502227452   2.204382108387643   0.7093003441230032
H   1.5182828390739604   2.038268037315666   3.0715363263189803
H   1.2903747412681625   0.6372430142618553   0.48270569175815237
H   1.1750984922130752   2.6732549385903894   0.5233115996846864
H   1.4972814701698334   1.3869735753219845   1.0448272386563928
H   1.0684681124554956   1.2977870490473977   1.386966075654186
H   1.751903876671552   2.1519185014120996   1.213019813705482
H   2.4365220385866846   1.4423542525507935   1.4743286561959963
H   1.3284873849837515   2.3795780145984473   2.309828683462688
H   0.9106785478019283   2.737632759852932   1.5270256956466588
H   1.8657123367136286   2.3316022440796877   1.595840373252614

