27

H   1.7100810191034308   2.8509269596879707   1.0565399167149534
H   1.8654790026555172   1.7820196291670283   1.1066469278464366
H   2.2281910225077612   2.2798132811111715   1.8757215301696846
H   2.7272853085561306   2.4880773662394517   1.3257596010544235
H   2.0138589764349026   2.4460989233025474   0.45853464693857576
H   2.1516793358041286   1.6836671991959629   1.101608904794161
H   1.8225389152767155   2.433001478794049   1.8942806596413728
H   2.4289869429826187   0.8686729621230577   1.291179178578756
H   1.8127852634500503   1.422131453018613   2.0261227962322916
H   2.1197278535516504   1.8801846113028549   1.2287795074585448
H   2.2776084905266107   0.9073440535239671   1.3415389315998467
H   1.8275723539904907   1.4477051120492994   2.0215369042180438
H   2.2878809404725615   0.9035612179612662   1.0905680661748185
H   1.7673979880470405   2.6025080314549824   2.6059479549794204
H   1.206450631550131   2.2264817777756725   1.2592329810064928
H   1.464777213695593   1.403612950694779   2.034183881939065
H   2.055092985589781   1.8855635210472603   1.444193732312446
H   1.540160146817537   2.2871710622995343   2.355684796697164
H   1.6888107933584062   2.3203044010905525   2.1085040641300856
H   2.4293870984889123   1.4912106707127903   2.13882003852622
H   2.1953159763846495   1.645576392694882   1.1175591928722481
H   1.3830017557900474   2.2572979628129204   2.943056204912169
H   2.048093217342842   2.522253622717342   1.7106860785228317
H   1.6347916432210445   1.4363839276329773   1.9299151740363965
H   2.3934917374302778   1.6812689826276148   2.360233155195927
H   1.537165493920473   1.0862377640455614   2.058264862777071
H   1.177484208531824   1.7712069675403759   1.1992320332070592

