27

H   1.4523887054727538   0.7732097930669212   1.3971321271937998
H   0.6267179860839004   0.3956020932400828   1.0573252077909616
H   0.7503426232215777   0.5479848240950791   2.033115771593131
H   1.477870000532919   0.09917419883410264   0.6509705215191172
H   1.8359900778925728   0.2200218033014731   1.7171066159720985
H   1.3097634020981082   1.240075114244699   1.630042398667068
H   0.9636866488516735   0.9037032176504233   0.6065514036515238
H   1.3282168097640716   1.071677901851052   1.7082486780529706
H   1.4153748640105597   1.3995000141674103   2.8303104051637353
H   0.44773615640821685   0.9288820045355518   0.9406626011997041
H   0.9589298960336833   0.556999261310932   1.9842783846168406
H   2.8025569356083926   0.9554275214775214   1.2285713537283838
H   1.3781863405944395   1.1608219279960816   0.628064637461076
H   1.5477678170189961   1.2813268955125656   1.6403472321248191
H   1.6440546795333661   0.4160146537793272   1.2649165257233532
H   1.1801405514143049   1.4526722217690984   1.605410330276497
H   1.4080948247119833   1.1491133403115243   2.6660043147578585
H   2.262162742615635   1.0299039104693002   1.9476909984988033
H   1.6248336652864435   0.8853141597790296   0.4513235536897309
H   1.6720796906153121   0.4419560144088725   1.3157506399697783
H   0.6243731933120167   -0.34417804931282464   2.6871888143756584
H   1.5987384310446326   0.6879148210425831   1.470423539949722
H   2.1997976876932186   1.112842436745772   0.7668688484134795
H   2.4060291437912644   1.3051445848038106   1.7088152811769055
H   2.064553971151569   1.6800854987001106   0.9654089663887272
H   2.281538143390357   1.441023116387713   1.9028483306829607
H   1.2652828538167098   1.0992892319211816   1.8997492871570894

