27

H   0.01330492454076021   -0.19179862706950146   0.4365908122538031
H   0.6189035067239559   0.03733433865742355   1.1888502512953742
H   1.593983453984667   -0.08978057641580182   1.0337907245172662
H   0.2940094408360522   0.7391814943227335   0.2288480961110027
H   0.7828720163410556   1.0645860728455903   1.0827710703173083
H   1.577343644225804   0.6710609005466851   1.6800359923741948
H   0.6360682690927094   1.3041185208516755   0.9582176567030913
H   0.6756642890514629   1.552409992148332   1.9352282014290259
H   1.3528453989736224   1.0885205617349982   2.523438590011424
H   0.6315947849127171   0.5666468959535327   0.2669255542131992
H   1.4962208143306375   0.4208214863516865   0.6593515451714187
H   2.226118067098525   0.6448175519707035   1.4076077280917674
H   0.6734661055075118   1.3499540712241427   0.8766313507841953
H   1.6586696454205634   1.3713873241773027   0.7606962549177615
H   2.029946609168616   1.5433834635563608   1.71833507337452
H   0.6048306285814012   1.8904041956532676   1.740177533051871
H   1.5954627975250157   2.0368404919113288   1.6392845157459461
H   1.9389513489549388   2.036814413409697   2.568452629446764
H   1.254497403946194   1.2991617611196413   0.020900625700571784
H   2.171814568346934   1.1036100299689298   0.5157971268581896
H   2.8738101503603994   1.36413341517954   1.1458271608219517
H   1.5006376521005789   1.8747928588227292   0.7708284246190261
H   2.5235916664642994   2.0067264770940234   0.8835799564661208
H   2.8827163860352187   2.1011811160576976   1.7665301543146905
H   1.341885374769948   2.5348159835103425   1.5172740380043768
H   2.3041794888939657   2.7752451392375974   1.4858252905487344
H   2.6127594021633596   2.8105228701389637   2.3795997912341362

