27

H   1.2029322764493868   1.058711272148461   1.678685491578976
H   0.3155494901131936   0.9304912430177645   1.3364207737800684
H   0.7296669624479435   0.8412384157656843   2.452060020787167
H   0.8424520042542302   0.12412309424509427   1.8571174330956497
H   1.8859887641360225   0.4177012040332354   1.874793667682111
H   1.2400371277894344   1.3197157908395998   1.6169218508331935
H   0.7760886462509561   2.0177860298081294   1.8961660862444027
H   1.2271585654766575   1.194782439109897   1.4525681360619684
H   1.7022312832384803   1.940292625975039   2.2153887866287705
H   0.8264963414417154   0.46595524803410004   0.8399481989072568
H   0.6556200047673044   1.8265930666178256   1.7548305914798565
H   2.2623127667309912   -0.19659975116381134   1.5426057435834775
H   1.2950952199121653   1.313799211127017   0.5818321557620001
H   2.3579461082780724   1.3566446573537525   1.401458722351748
H   1.8317068872108844   0.5179133951329123   1.0248409794592022
H   1.2632303116852528   0.947082561651836   1.572804513914814
H   1.8679135343061917   1.8653518604141164   2.048703111628699
H   2.116611187968956   0.8343026444396748   2.063216688865057
H   1.470845675137579   1.1640013234186304   0.7674730242237258
H   1.2673603629628287   0.7907918376687303   1.6135836909883425
H   0.17463779142487246   0.9843704549977664   1.6481340286934028
H   1.1577952734163033   1.0556735343382284   1.8053125066243374
H   2.0336453170575073   0.38982867471963   0.974173867278657
H   2.279287909680846   1.0409133014389447   1.7744787630244447
H   1.9713359650114097   1.6606985327354888   1.3570972800623367
H   2.262320019773652   0.9965389523914482   1.9518575130376585
H   1.1495459383462767   1.0492258992011123   1.7934655620715292

