27

H   1.3630716661864006   1.0894389154215138   1.7791129077467138
H   2.0173487556337064   1.6760063121663522   0.9901613346250904
H   1.8002956708072821   1.9958884000817152   2.001752969721945
H   1.2170351896982352   2.201706268420446   1.8048585611591421
H   1.447170947796119   2.9599574062188525   1.1241171222774224
H   2.1172330975875333   2.247545101453926   1.0662092426142609
H   2.221672504708768   1.6716318614610153   1.8839924111536914
H   2.553573268152929   2.447247731178853   1.2054408358471311
H   2.2351972823537563   1.2975613777281894   0.9731926784962216
H   1.5023873849499727   2.054959870339912   1.7246078522678765
H   1.0635712387144285   2.5088275966349105   0.8381266078940518
H   1.1561056305928639   1.2325846898432697   1.3032846496866566
H   0.7365254079186447   1.889025292726211   1.0067252853380726
H   0.854448667527023   2.577897754890556   1.8041832279678924
H   0.21346748036503582   1.0802471316073812   0.7388155065580934
H   1.3276726046575917   1.0378768725809833   1.8510450758638397
H   2.3048809996068225   1.0290798107663284   2.218344364104164
H   0.9417766735791718   0.18742168908768897   2.15427664916291
H   1.1413703407484155   1.7947312668354045   2.6409248695569967
H   0.9531329424064401   1.8967473629018443   1.656121501264456
H   1.7632485155131556   2.0052811834338633   1.0579969312060886
H   0.5480532798825377   1.1794608197729053   1.6268708293667518
H   1.8365727049696792   2.322655789835726   1.6867562321486338
H   0.49045670575832523   1.9880839606370857   1.0123319304851714
H   1.3751996860865197   1.999224674529586   1.4844801450831653
H   1.4042619029427101   0.994903298757424   1.665872174045403
H   1.2632647160150525   1.113929762952515   0.7643575321833477

