27

H   -0.42527580039263396   0.7671206403061686   1.2612319338836326
H   0.45184039879178495   0.8874852301219298   1.6811491265217964
H   1.3834762026462954   0.8415172444505897   2.0632448039267146
H   0.5129566899976336   0.6018600654978432   1.7409335700762951
H   0.7788889222100011   1.2444372053066055   2.524510414553558
H   -0.02477280994239925   1.405297862207174   1.3229410220598594
H   0.7776146848483383   2.4359508118566406   2.8047605940690437
H   0.8024347219188332   2.0265371229528397   1.8715691265339713
H   -0.058767973564113604   2.101955739085132   2.2746954592557946
H   -0.4397488665351332   1.5411153905785637   1.8452323574485099
H   0.39091694830931806   1.7662841551279298   0.7405625371262249
H   0.6414200473841024   1.367627699212361   1.5898710301948387
H   -0.1535415702407688   1.3239136377080913   0.9644485380474348
H   0.776950462573977   1.2377635953131039   1.4955834015330423
H   0.25850762735650723   1.9889510493407057   2.106164479451655
H   0.66611324462114   1.8218163032415298   1.7329216022494762
H   1.7783993648024636   2.701247875292387   1.6231169829139842
H   -0.26591821774684193   1.2192235940172507   1.8160517757993426
H   0.33931321121491653   1.1981420758981574   0.24711030942169454
H   1.0876048644693244   1.0398970534780656   0.913212231655149
H   0.1951341070002588   1.9941322859477826   0.8489489999797808
H   0.426046127910685   1.6271443393322507   1.676568224645198
H   1.4991358530099468   1.8757504951347337   1.1447973703475538
H   -0.09630746172221863   0.4960726455900165   0.9077482729250954
H   0.013924012009894128   2.4360732765356072   2.1709670022763334
H   0.7178915970987743   3.0157328897811415   1.659546726171572
H   0.7493570866580302   1.9634659099135616   1.6991106617774352

