27

H   0.2981821770622463   0.4989609456274332   1.0179848492828345
H   1.0828910371543008   0.12596110260006532   0.572267860366084
H   0.9507361114662247   1.1850454764224059   1.4208850152118782
H   0.7195251655655132   1.4900012778625238   1.2030454344198167
H   0.9087007809333308   0.5052055147329412   1.4850649392539326
H   1.4433246913285238   0.7941420472592925   2.3010647799273047
H   1.750179803038245   1.8149332755770622   1.196748799822509
H   1.0275317853664525   1.4483639472397194   2.0825031694373917
H   1.9646847347281542   1.5545353960784154   2.771214050496136
H   0.8411002360828621   0.9862457203727335   0.29601592460440984
H   1.7425852394387757   0.8521875834398601   0.5881405860830348
H   1.868859644504215   0.581385309992794   1.577751470541966
H   0.3211392694949994   2.270670659520966   0.8770558277527715
H   0.8458521683424705   1.4960196185273085   1.1284329817443302
H   1.6491355263577703   1.5539697423887322   1.7325539878337386
H   0.9730460914672563   2.0263730186534117   1.655269386611308
H   1.762557397533503   1.5474991363265127   1.3351004450334452
H   1.5917266459621728   2.405555903459353   2.3935003404475372
H   1.362129506906031   1.093477200727905   1.1641340199002057
H   1.3609174042115053   1.9139587501658046   0.5785425229800327
H   2.1572722849265045   1.6653571971527188   1.2494609409980282
H   1.3036260358518985   2.056108486507478   0.6306026074346608
H   1.4515560787636512   2.064671490767861   1.6165241872975409
H   2.271494652877567   2.3194146718363506   2.0170124043782867
H   1.6922732132374945   2.773538074487212   1.4750526746273878
H   2.4265644654864515   2.140765319778494   1.718427603722518
H   2.052806009643847   3.199748959338377   2.4044130287621566

