27

H   -0.2150175728782155   1.2145304919843245   1.0172205223578439
H   0.645068912037285   0.7777046289404468   1.272985860002708
H   1.324438928303893   0.5769260135011749   2.0550406684250313
H   0.35235736400429074   0.6900936176662106   0.43989495893063024
H   1.2698250061417133   1.1058420300477685   0.581310658810714
H   1.4901842608188323   1.3166737431084325   1.5724896960607784
H   1.0187675252573671   0.5565198663480736   1.2279690273103294
H   1.2751111687153207   1.1935631084829648   1.8517414777569405
H   2.1143160448730365   1.0145995574150084   2.4414429793794823
H   0.22901865551248007   0.5629083291640952   0.49951815150133005
H   1.2511941770611739   1.0627335211172224   0.5249246233757124
H   1.745009122247499   1.3042891898253455   1.3766937155774719
H   0.6007179308459751   0.7714448647573813   1.6579300963482486
H   1.536590785188858   0.9187644159015571   1.5257958135793432
H   2.0262201311297474   1.435099394481725   2.3942271478010686
H   0.49817045588302694   1.4265249877413824   0.9488734667970585
H   1.597220306099595   1.9437528011821092   1.2894113327389676
H   2.286569016061766   2.3095291757931773   1.938022009942094
H   1.0264632450690179   0.06905002292494442   0.7802340411012183
H   1.669817707166343   0.4991726347217496   1.4891543950276995
H   2.145119910434804   0.9458230111597611   2.3087456942693985
H   1.1812844609525937   1.1142261362956638   0.8307464501382203
H   2.409035224778052   0.8746826090900808   0.8792223670189355
H   2.738789503949851   1.5463695043131684   1.6197154215631326
H   1.0511992677185693   1.3837172084473817   1.8402293364744409
H   2.1007029144045046   2.408859281571278   1.9452999074757706
H   1.618611453635546   1.8004873342536927   2.638738599960782

