27

H   0.11294289380035666   -0.23416941334412938   0.37917706739753043
H   0.9554346967530344   -0.0853764097889089   0.8585356077722445
H   1.718746777051762   -0.049432526823741316   1.5354729930844742
H   0.00849452804103233   0.48170912306598807   1.0901859872379365
H   0.9115169074316882   0.898792154023482   1.0591191179363753
H   1.404947029371919   0.8418445300348999   1.9505129398061276
H   -0.05722574137841708   1.4034537101384184   1.631639381524381
H   0.9197328012368687   1.5241966054496547   1.8272360147218787
H   1.569238603899655   1.6123637507087103   2.566234033572126
H   0.6555932466902902   0.5541581394482591   0.04912130339501778
H   1.5027609457581046   0.6764823684670709   0.5464499968239929
H   1.877624064102752   0.9402667734595141   1.427844789844691
H   0.7644534265724114   1.103733906416182   0.8989788127326876
H   1.7030290946608295   1.493947277227976   1.0827067729771511
H   1.8165058076156781   1.7416119703079849   2.0258086374296864
H   0.6660582028139445   2.04830299449175   1.2685917252816181
H   1.527006250750059   2.3049111554938073   1.6854222742149514
H   1.8329929483348422   2.5823149122484965   2.6242661632043713
H   1.5241573947936902   1.0588467880457157   0.11076322802979748
H   2.1229872503034257   1.3804474306158765   0.8264373255588021
H   2.779733584549218   1.3442632607362925   1.5540003717011646
H   1.5537086594868759   1.7042518750215672   0.8861921255037818
H   2.2613130250796347   2.281317427541355   1.1896152959203512
H   2.7312960881985324   2.1962139266820597   2.070880429484153
H   1.53859798341288   2.3994884522959734   1.5913419413175183
H   2.307068944524144   2.890527918833804   2.0048581177274656
H   2.7572599622831713   2.7569939204478286   2.879493970128082

