27

H   0.2005895866635243   0.751524963618462   0.9339601066243343
H   1.0718170870198036   1.1427703009904278   1.3105956195517448
H   1.6290615612677881   1.3136071386785244   2.0180571845233843
H   1.0312855900429247   0.8349154253047779   0.4035085867835586
H   0.510843223863029   1.652021637382034   0.7889099431558904
H   0.817046516149541   2.132972645580287   1.5659132610479845
H   1.1991973068816655   1.3896338140824551   1.2098208608750856
H   0.82476751263587   2.0677352044638426   1.6505526184779753
H   1.7382988575331761   2.462896933384368   1.457371549769967
H   1.1343409834653646   2.458119619773314   0.9851284091226851
H   1.842441016243503   1.8611494114743792   1.2402423480485938
H   1.2291828053537721   2.389402909322197   1.9275807715781024
H   0.6243007491127252   1.7581725305287035   0.6408033703097258
H   1.508123775171637   1.5317759252747654   0.3632919247756672
H   1.364130375875195   2.5493314267669995   0.798777714693406
H   0.4688381357994543   2.003024366909997   1.6445496603628929
H   1.8171998643351628   2.8137596327235452   1.5771690752571053
H   2.8111391106061117   2.830956379704233   1.3553733993837251
H   0.8640949960851139   1.4144502276900892   0.8627748167477538
H   1.7646912662971024   1.1437806053891921   0.6092262849308976
H   2.418604319411266   0.8834784366186305   1.4004241081836786
H   1.7144317027603557   1.6878134625662378   0.46882748098915566
H   1.3612921803096736   2.590329947454451   0.9056372086571115
H   1.8225443310937437   1.6396508852849117   1.5405776607036286
H   1.1185964560161843   2.3193316724309083   0.823408071565142
H   2.147334191103248   1.947135826992024   1.0707443218990669
H   2.210646394402208   2.14202492913767   2.35308242352039

