27

H   0.8083378419446179   0.5220741933493479   1.2516640913514527
H   1.1555729889855846   0.2862376162318244   0.08999906659190446
H   0.8794082698241021   1.532881843872298   1.0872977931149976
H   0.88584051298311   1.560717213586119   1.4500303227687474
H   0.8253271683374929   0.6155073113542623   1.4452667888979134
H   1.4615219680573548   1.2184660354888133   2.300700446888431
H   1.7308568885127902   1.4007860707927513   1.906788867709289
H   0.8132500856856486   1.2308280753030665   2.209280135777961
H   2.131524610189376   1.5420051146266358   3.032748824105323
H   0.21162130028488685   1.2257920009887473   0.7577234135615136
H   1.215568927382891   1.232168733486869   0.4862877458491269
H   1.3159742628898066   0.8116775276320544   1.475242822384044
H   0.5904439803102118   2.2822036413905202   0.620552412272208
H   0.7073505060295046   1.6526593525958753   1.3561677522162707
H   1.8635888356577188   1.65691445442256   1.467605313600223
H   0.7709910520193013   1.7576674890574873   1.403462355822771
H   1.8586296985675732   1.6188903660503173   1.3402405038408551
H   2.112308691127234   2.2324248176318404   2.2453495749416525
H   1.0583352705231734   1.3755096687053368   1.5366269587251156
H   1.2054620768150326   2.1721216851055605   0.8919115224550073
H   1.8997899884562306   1.53729176298539   1.0702045453061537
H   1.4548505792778264   1.890955319136765   0.6755607546869575
H   1.6765806139147545   1.5198126608694729   1.5135442231817446
H   2.7856303799645774   1.995074474683223   1.407775703778013
H   1.5261508204324188   2.5116048533866295   1.5130400775519222
H   2.3576794467555087   2.1808363118757224   1.944620920766713
H   2.186640243745674   3.2636180525464753   1.7782075443841083

