27

H   0.0995229543394171   -0.09936457068559063   0.12505252849957926
H   0.782322443713432   -0.08032687136621228   0.8738871991355627
H   1.4657294081799483   -0.11950643305051173   1.57230711426355
H   0.11437105515005434   0.7725474345815975   0.601502733796489
H   0.7281861379932387   0.794177226856355   1.406712651183751
H   1.4846852135599968   0.7346657370655741   2.067712848973057
H   -0.01851444624399197   1.4532405611248507   1.3817863146622513
H   0.6710802293691591   1.5175359671846367   2.11771332888903
H   1.272558626527334   1.303991550210502   2.883013685634476
H   0.5574868261872492   0.777322001302338   0.05613137354525868
H   1.3221079227061046   0.7700672987467542   0.7467721158541881
H   1.9528808234451005   0.7824312365145966   1.4903600345169674
H   0.670046371560955   1.6242882451998815   0.5842191442912542
H   1.3066924258876942   1.5644102741056503   1.3519222360727803
H   1.989953369846206   1.6223862605994768   2.051801134232593
H   0.7273252752255763   2.14676178465197   1.4166497146178383
H   1.429507443578903   2.181188658251366   2.144774568137911
H   1.9867806543741848   1.9854610902277225   3.009024290276296
H   1.4654753260215643   1.1353918171189703   0.037675068317160984
H   2.1255630471253357   1.3441733474558035   0.772795417514193
H   2.7663853807188823   1.407226671138113   1.5417928515747816
H   1.5964947421327056   1.9698585224521188   0.5818336034960727
H   2.1340177989637454   2.1285059343256383   1.381342335257374
H   2.782051598406412   2.2451500943947043   2.130404030468337
H   1.6477399169762403   2.558323083963567   1.3766421592829021
H   2.2478743898485574   2.772156649966465   2.137209170110128
H   2.6990438446768468   2.6986439116540915   3.023582597558843

