27

H   0.39289579660835516   0.3640427360553352   0.6373049464819858
H   0.6783339635668678   1.1599271447811743   1.234478967076396
H   1.3288748246254307   1.1394805622646174   2.1046131794477563
H   0.08614895606258165   0.2786091705259645   1.6515971192543906
H   1.2334812496233756   0.7820259754482612   1.866461751558996
H   0.4337785340897894   1.3702968110280946   1.676330013577954
H   0.9067518837408002   1.8858798909063939   2.9571019462276746
H   1.0315301185301051   1.808499518836151   1.9058821988714065
H   0.12801115290697113   2.2169847474275786   1.9455589130371034
H   -0.2916108737964208   1.0695148683676166   1.1074915993777352
H   0.43432318245939944   2.0544181858553925   0.6773598414939059
H   0.6975061355932475   1.75276239339042   1.612553981911695
H   1.161037987707143   0.823767772038457   1.3519990308910308
H   0.5470333130455232   1.565748748150625   1.5083668360416957
H   0.13110096882654235   2.1194052711377642   2.260199300626005
H   0.6263675567433609   1.6224021428181081   1.6903040717450375
H   1.4407460716615335   1.5601582269425243   0.9872370877696116
H   -0.1812712948089837   1.1494941379226127   1.8587423588879837
H   0.19143169786864728   1.1848884683518917   0.01101557774242351
H   1.2527001030122942   1.309294606786187   0.19680705885799582
H   0.94269042302654   2.2728275440410632   0.8745468943056197
H   0.7086957074514485   1.65733506814457   1.7154486767890205
H   1.614971631416193   1.3471640735826227   1.2031366918740671
H   0.6794221039159501   1.3175130066951668   0.6831291295969839
H   0.35820460848955316   2.4725533757901954   2.084167245642754
H   0.9817476809376577   2.6382009479722996   1.1875188651972983
H   0.8084392925930021   1.6327616064201453   1.5410603705004893

