27

H   0.7494293709258103   2.0685347676352777   2.166461807357277
H   0.2037212723876777   1.188666747023449   1.9885954549412186
H   1.0541273894830414   1.264223004315465   1.453872501321058
H   1.1809770583233659   2.0509113250206745   1.0992974696685538
H   0.8976823853629428   1.074334791010475   0.9997276754531302
H   0.25826366435825493   1.8556632947116796   1.4105022184686749
H   1.6191233498688617   1.2576765277421236   1.9629754574426672
H   0.964424588858883   2.1140776926433467   2.183924569881312
H   0.3348369020546944   1.180197210486398   2.405004590256977
H   1.7339864882428848   2.122497669930497   2.353816118739744
H   2.6522759768073176   1.6410699671093039   2.1975106091780843
H   1.9660539145644518   1.5641936206013993   1.5640629655511058
H   0.7873166441374854   1.5008394768076028   1.914121149854537
H   1.715876758428086   1.0862749592813863   1.8190534688145132
H   1.1320099021458028   2.1088215416166327   0.9717120722595906
H   1.546444282179033   1.6419886000945318   0.820368368434008
H   2.035207233967791   2.1385320443592972   1.689951884162588
H   0.9913666959680614   1.1118812097758717   1.5796814265955972
H   1.3683277557689282   3.0164323785144203   2.202096086156658
H   1.8854557806082817   2.2022487964546267   2.052209986128587
H   1.2922458212725187   2.105076169488221   1.0164764335010854
H   0.7218086958737648   2.44552449190736   1.8741685636170453
H   1.5222674796686817   2.0769873898023823   1.2543383549744187
H   1.2430256253724088   3.0316455760418717   1.2077474981461036
H   2.0949137281527888   2.1975126657834587   1.5659997087363713
H   1.5337740614936517   2.9551005451270203   1.58181414180822
H   1.2511796001959083   2.280079486415456   2.254467103333995

