27

H   0.36673957778214594   1.304136831493541   -0.023006428818602598
H   0.8657408547025498   0.9916091370476275   0.9726467911494395
H   1.6251606254360207   1.3655372956544973   1.4031614651437139
H   1.3060499989697811   1.1936524556754566   0.09857630424050974
H   0.48671428870124706   1.73233526364589   0.4902545976563969
H   1.2503141846479562   2.426122191825728   1.5863781850049419
H   0.986257916075038   0.8941242371349652   1.1334665959723147
H   1.1559260103697324   2.0866239490721523   1.3510833171929155
H   2.0599992518413015   2.135346337676686   0.9719517672489207
H   1.64273503738586   2.001386713350878   0.6978345874649429
H   1.6251628590704406   1.478378865084455   1.5195834237372252
H   0.6751154795144544   1.9749031453489176   1.259725140673012
H   0.7268534968607937   1.7135967393469478   0.9279797107107896
H   1.1934824745315777   0.8902466944756905   0.8240477484721054
H   1.729345630726696   1.6892518841587234   1.119979647190538
H   1.4739136387688627   1.9556887341812084   1.6672269139091724
H   1.9759096398225815   2.513827855793565   1.0646053965777968
H   2.391246422052208   2.3000620235196436   1.9685506633185532
H   1.4061495975893212   1.14716778494653   0.10388011133506125
H   1.9473109197081713   0.6010070620775128   1.2719007715075636
H   2.284264657661   1.0457572267912116   2.0721738345582796
H   1.636954164659578   1.2845788101032563   1.027496209919682
H   1.5056690598955949   2.31589737477587   0.9283131684242278
H   2.305297081495755   2.268856506898708   1.6809429985525957
H   1.2061144759283762   2.113777343055603   0.7010813343798725
H   2.0953265480689542   1.7384088358399303   1.5965928846969466
H   1.6706150125754557   1.88019758267422   2.6021290287472065

