27

H   1.4852016930921144   1.0125846645075298   1.2659904266214221
H   0.7226950132647033   0.384926850833757   1.0405006323102206
H   0.7491407895371107   0.6003694049470663   2.231053307561011
H   1.2133959898998867   0.3813561791269442   0.5256050350497049
H   1.7863549622803547   0.039641190892692316   1.5918289812967152
H   1.3728300173697499   1.062798793106639   1.4607885742974052
H   0.7173273459443017   1.2040675271797927   0.7876783760183407
H   1.2505432356984498   0.8611525790175439   1.6570586110114474
H   1.2900522645249533   1.3437141445428369   2.5099421779459345
H   0.605512538514445   0.6374562857872808   0.8941925174054581
H   0.856062105517863   1.0101821330583125   1.7826536574294467
H   2.7127296689410314   -0.22337044801545256   1.0221178256711911
H   0.6863224127389654   1.6573278311072974   0.6185220131044137
H   1.6716469221447567   1.270167899740731   1.4398051055761198
H   1.9634393572544004   0.3186915188351412   1.2476843694836108
H   1.0147931734250684   0.9996641471477503   1.70515324748359
H   1.5685780818438797   1.3470556840370775   2.5139577434186062
H   2.0029062437024665   0.4126055425023059   2.2772561176324526
H   1.4060312453431454   0.38176876545414606   0.3003470488555241
H   1.6368773532389178   0.633496298811548   1.3103154185100605
H   0.4556138751939065   0.01144458903614047   2.9403300740553635
H   0.6842387084218573   0.9353101185899821   1.2813312792080374
H   2.637817212303271   0.37489317743258527   1.2085665888650037
H   2.2131937542367233   0.7856529145798895   2.0166291825415517
H   1.6807261663059814   1.402179957825698   0.981139607230026
H   2.3680677975698816   1.2493104639724817   1.690477753793738
H   1.2127539588480054   0.7625985375495599   1.5973463007265174

