27

H   1.3991002261937644   0.8575325134583903   1.5295707499418365
H   0.4463108068875225   0.8796383838381018   1.1933426498031103
H   0.34809935042271606   0.455234989398976   2.0675848082700106
H   1.4569924869791246   0.29839070319395783   0.548865547671968
H   1.9750204414918726   0.2987273633120019   1.3752487829599433
H   1.4329251871885427   0.9312615149795894   1.8232070439936734
H   1.0410691125491232   1.1468864795806122   0.6820328973257886
H   1.316463370441297   1.1243809392998267   1.6177542274400225
H   1.580857499821191   1.040927682846927   2.803233549635128
H   0.4836897364715954   0.7320204540378674   1.087638638883535
H   0.794806087074389   0.7388428116668966   2.0326383154281453
H   2.2855853024919703   1.3335318622357166   1.2167525845802527
H   1.2399791045747546   1.2356986742839995   0.8353148942822985
H   1.6900552399491238   1.2522537114715981   1.6811565244464157
H   1.8994380786099045   0.4600474597601318   1.0155400482718895
H   1.1718251200018261   1.5745232384567873   1.7466097660438056
H   1.4952870107549765   1.034810663948777   2.593083338495671
H   2.4964782551790115   1.5569544449191284   2.1263143354918315
H   1.3284546319444837   0.8365805814738129   0.5472351775209058
H   1.7561657662658958   0.5058287748199738   1.5606663275583579
H   0.638759509476414   -0.874215218581242   2.693008138980055
H   1.8758685591008792   0.4736618004447774   1.3379605756343513
H   2.0526665024561033   1.2355183612699725   0.8519992515242617
H   2.3367128115068176   1.3241729389716448   1.6943816556762736
H   1.8482294314739254   1.6245034026725507   0.946430146244036
H   2.363645307944072   1.3203972428526067   1.7715901522900617
H   1.4326693553685321   1.4511961414225556   1.8929011604026038

