27

H   -0.16393474961799998   0.7518584472670845   0.679421520921204
H   0.9130693621156246   0.3108113717228418   0.28940792145320765
H   0.7384716688311636   0.7993759249786959   1.2753001955888759
H   0.668249251024148   1.2571187735018814   1.095649986712139
H   1.1917693822234605   0.4234701992984252   1.2593506917599016
H   1.2584545770937083   0.6790896400755064   2.169140495746927
H   1.6951563549240625   1.5799894571914788   1.223824781789104
H   1.4284314601788533   0.9849018315591025   1.9984075599810693
H   1.9994867581821625   1.4747073907396864   2.664867545669229
H   0.8097524262907977   1.2906528151082846   0.30093390665678554
H   1.7223349438979003   0.8584215390288092   0.4730694720410935
H   1.7870027840128853   0.5193926717236382   1.5005366179900892
H   0.42765183604608537   2.1677040975227886   0.705807187230256
H   0.8432427826804494   1.360488319427213   1.074997443446372
H   1.7235812421755072   1.712451019815329   1.65415829190878
H   0.7778024709836231   2.009516354330631   1.6766617283433747
H   1.7933568976175394   1.7493243338899662   1.3820671101427724
H   1.5208870088151731   2.3449427252917348   2.406354281985868
H   1.4347854862449285   0.8937113617192443   0.8927099034687901
H   1.672231634407061   1.868520007586345   0.5817620036086407
H   1.9734318777501154   1.5053623254757706   1.4947532722370176
H   1.3039009899476863   1.855540660016769   0.6473589176834669
H   1.5952108332834594   2.248384897732652   1.529659014434381
H   2.494541374278229   2.2622629316988894   1.94769640993918
H   1.7105112797328799   2.6143007104618206   1.1871391889490361
H   2.50321213633914   2.264602827146988   1.774097224295549
H   2.1972688473034685   3.1171074963344227   2.370101563558344

