27

H   0.5037409864764979   0.5455777687743432   0.8393938845968432
H   0.9682667343168457   1.0654191735899619   1.6407138364711895
H   1.3359026432512882   0.7887086784534053   2.4606007855409415
H   0.4533387345016026   0.6973351206897036   1.7711371651284242
H   0.8534882959371711   1.246045537034464   2.5801656825552786
H   -0.2653970829006186   1.320956377598235   1.8839905784702098
H   1.1259941094826151   2.5661277841808614   2.8283147323792535
H   0.8706152881024513   1.9329089874011263   1.949852722024326
H   0.0012581530129026977   1.976176562758069   2.6030729445546266
H   0.5637319475107354   1.1318598196651788   1.886357365689267
H   0.30304468520664574   1.0752907134736422   0.7786244688113051
H   1.2158549710417008   1.188039063476195   1.157694505486298
H   0.3061444127897268   1.4608333776534934   0.8922318317438506
H   1.1439056287161458   1.0994775518501914   1.3085513949788283
H   0.616051700509827   1.7132907347458952   1.9019387627765019
H   0.5412872546349667   2.0273365074824423   1.6809300856343636
H   1.60007203689972   2.6846218361340117   1.849367160877298
H   -0.5098946749174934   1.4500644737429582   1.7587562791605709
H   0.5526349219018066   1.5395022661348878   0.8037822551588197
H   1.589794833587887   1.3468619004760716   0.9216745601432862
H   -0.32068050461034525   1.553735923397507   1.319364966039759
H   0.6539281872638841   1.907959898050026   1.745917083830118
H   1.6793780195551538   2.307074261455963   1.4860608365182015
H   0.4025472349910656   0.7853550874940417   1.3998892716137206
H   0.6428227022531194   3.0031793212949025   2.131056514755922
H   0.5655008133106372   2.6685909488663975   1.2112103535530008
H   0.5310585797371621   1.6819497239010686   1.8463995111649014

