27

H   0.6470103472830367   0.8200589379331292   1.1553680383236866
H   0.5338448734182096   1.3969949294193988   1.9383168297855984
H   1.5902018595914382   1.2221578622496583   1.6894653005445153
H   0.8747235944813512   1.2730029732538477   0.2693446627457036
H   0.601021363237082   1.9048592577889565   0.9213898558444754
H   0.7829471207666354   1.5465055380298551   1.9278344011006763
H   0.553337851436112   1.826924358169249   0.9370317990088765
H   0.5599442805440942   2.5495367724679947   1.8109511481710339
H   1.4041372890603985   2.1757800459778647   1.4091480913013004
H   1.3960215071994926   1.2367336696421416   0.5959024404473422
H   1.3877573722851144   1.1426370829175243   1.4947448027179044
H   1.7907270934272475   1.7639393479994854   2.5129849366473906
H   0.9353337976308739   2.060819469664982   0.8187763759931934
H   1.6204453694514365   1.4127356211629198   0.5776905451818933
H   1.6002654006558437   2.0086565945298713   1.4869838798125665
H   0.6409852906198467   2.2385332764538424   2.1244395260675804
H   1.514510172879187   2.166091572839072   1.7435104229949474
H   2.3374205899873752   2.520863150128096   1.9386479250654507
H   0.6487042369986238   1.7706889907762733   1.0194189349141378
H   1.7257962732166   1.6519397030703704   0.7394080908027656
H   2.66147252350827   0.994668507630582   1.2889653634414973
H   1.7589155863499981   1.6107339507772525   0.8221827732314483
H   1.6868782462164418   2.5681668935786104   1.4316376238443305
H   2.576918915308981   2.033576034929908   1.751549594383547
H   1.3411636079800582   2.3046751387703037   1.3815533273413414
H   2.3257321629583685   1.6849167910118568   1.4658042653816588
H   2.8662530361215275   1.1177987305886137   2.2458783414667405

