27

H   0.28458259223164056   0.37372033832361107   1.250795515233486
H   1.0344373995770395   1.1212502605625112   1.5147102967980217
H   0.611661248367584   0.587262898117482   2.160748595074057
H   -0.13957721152193978   1.3029870807801454   1.3676485672248253
H   1.3722000725407935   1.6649040576939031   2.4055979903758167
H   -0.28972136854792074   2.38523814886569   1.6295967205631579
H   1.1419553170868606   2.203624539996162   2.827988664419094
H   0.622487035130026   2.141262783595282   1.9192537452012082
H   -0.0346412778517865   2.4374693808084467   2.5798397730098768
H   0.9910656336268828   0.7395820981614348   1.9183873316710172
H   0.6587073557644318   0.6348750463273412   0.7238908706557562
H   1.6013818015730075   1.2155941853378465   1.149205876799547
H   0.5952978504423031   1.8736623641153372   0.9226985036844886
H   1.2778457685476974   1.338701377256874   1.3951099359364783
H   0.729268776204005   1.9966801216384746   1.9296948040215773
H   0.5622094686803538   2.0718799079561627   2.020629514299957
H   1.5345794654622766   2.253383247764865   1.6041325115174212
H   1.0044789550675617   1.9537745349178046   2.851758886464658
H   0.9951011232830038   1.3098638487229208   1.133953905537031
H   1.1713039571842463   2.3348589114271068   0.45317485615957526
H   0.40327774758858254   2.041840315830462   0.9962407729695753
H   0.7086982691059691   1.8145846649737685   1.8906401470718124
H   1.8278007390420532   2.2128441488325072   1.2394199608454814
H   1.5192141331507467   1.300878622696076   1.280871668364696
H   0.8344626267254039   2.9894689422229126   2.2781506429085
H   0.9743078782744793   2.9889662545433238   1.3063684639092443
H   0.7697631254116184   2.0910060268096964   1.905328216078694

