27

H   0.6122748759162151   0.3199575828934185   0.7151396273170938
H   0.4262981088428571   1.2734301540778747   1.0163245425441276
H   0.7365164889234783   0.63892921412014   1.7625507975042096
H   0.1822214767671944   1.5596829961382486   1.7301466930697764
H   1.628027276439871   1.740774892237259   2.1723934347267164
H   0.5934229216812943   2.338853108952663   2.1176663848748003
H   0.497971458262428   2.2145939194052495   2.840582538343693
H   0.6498652829142996   1.9580441466129395   1.798353749469212
H   0.9811755329735216   3.1764398141755663   2.6073192056290995
H   0.4332926528026816   1.202455417053589   1.6929161942001762
H   0.4760913864457528   0.30183348922653164   1.1943315983063738
H   1.736414773665025   0.6247761388705947   1.6499087753486397
H   0.7104152749446312   1.5954463712801437   0.8602091772430215
H   1.9537810660756332   1.3850913644407872   1.3241402691083035
H   1.8632652647407344   1.351516781359436   2.3906246867810945
H   0.8092128998869834   2.0667478976084763   1.9482208723926027
H   1.4016481662405866   2.1575231386676124   1.1478463567795743
H   0.8026331125850668   1.8117438640087327   3.2538776699145004
H   0.8643241727672705   1.4548180792425844   0.2759262936331284
H   0.8590472148008115   2.5460949811796096   0.5469859933467834
H   0.932636548511731   1.5078088945433714   1.3765961257887218
H   1.014557729100984   1.993292592838004   1.7097543889803906
H   1.7654571671518635   2.3243852338850246   1.2526019239018331
H   1.8658500354652532   1.2598290689800518   1.1928322296374922
H   1.3161997951330064   2.7831837877991266   2.27994884027577
H   0.7917450557828316   3.0202356618315958   1.4698488920578185
H   1.4677658478648052   2.192510972060505   1.5513787739514955

