27

H   1.3393497768370635   2.219472078213632   1.4247740592549938
H   2.332506413367448   1.9241170351831385   1.289283070847465
H   2.058262267262013   2.7122000508114885   1.9980621791794102
H   1.5771754573579133   3.2053954615276457   1.5248753510006965
H   1.1513418389728702   2.5702337640099504   0.8944747188027706
H   2.091478563536465   2.4911416336795145   1.096906727218766
H   1.509679534379149   2.6137621977334056   2.2630402041087505
H   2.2499369311344615   0.7925998655372645   1.5812893693812011
H   1.7707495172826777   1.7306187045901218   1.7052189824499229
H   2.2288213144609283   2.550105940589812   0.9464461701041637
H   1.8666784696860286   1.0879501952096287   1.0746038961040674
H   1.5705525701254952   1.9147855453126894   2.236509618539937
H   1.3960908316388458   0.5595551986477371   0.4574903910333401
H   1.9305023338834308   2.461886357184958   1.677793953397409
H   1.089444963506425   2.1946717269437688   1.0305823722755616
H   0.9207015689905954   1.9582014840923097   2.5943336236535863
H   2.116791863553947   1.6379539183132956   2.0810941689909903
H   1.478309785387888   0.9025302060923907   2.3635600025808365
H   2.0567583570088472   2.5484217574537347   2.064094265171227
H   1.9910247220404313   1.4666874661636524   2.06592513549181
H   2.313426085804347   2.0507076558551174   1.3258938454329867
H   1.1025979150906082   2.31860954317182   2.1915585345402357
H   1.305541829785247   1.722966642833195   1.4374815031099133
H   0.30570943101639075   1.9502205680917009   1.6759342757272016
H   1.755323508783537   1.6214481160622554   2.334816034793774
H   1.2993499450739872   0.7955385343824909   1.980944497183319
H   1.2772129044666103   1.2198881846983047   1.089936091344432

