27

H   1.7792066226436536   1.1731880662245755   1.2344631296777087
H   1.853004420611015   2.097202569539419   0.8468071748548547
H   1.317427494574926   1.8484267533172523   1.7143991414019624
H   1.1206002010787115   2.0643750822221425   0.9504991919917931
H   1.4397969833428006   1.142453236574031   1.283505625704174
H   2.0909624411990744   1.3941600817647817   0.6193775534100363
H   1.0402858745413668   1.8655104432275622   1.9629489949315782
H   2.149228598193574   1.776737537505484   1.8089918105706833
H   2.9296347759359507   1.1802452612458523   1.9385327832012884
H   0.9030250326581046   1.4654880261673624   1.8667900532799404
H   1.3022274407604788   1.2532870814007517   0.8106945740926618
H   1.4194041903466048   0.6778897122055692   2.0971029140349398
H   -0.7537317574259148   1.8383573816910719   0.3191324724786638
H   0.38135036238529574   1.637316130906207   0.7296328308109719
H   0.9225160275471042   0.9147660363170002   1.2222443335741073
H   1.2913628221872475   1.3440394850055424   1.0138135928982914
H   2.1514391844347744   1.7900703095486772   0.8933750636653599
H   2.1603913282187346   0.7225183071860263   1.4095742821975576
H   2.124678698457741   1.4080069401459179   2.169741751958108
H   1.2510880550480965   2.2250068798028515   1.7146262655159117
H   2.235235820225192   2.2471278492950657   1.5870275983918545
H   1.341476688438556   1.189782242077195   1.3790941610008942
H   1.3899004367471295   2.057553680811412   0.8400953395739185
H   2.2715303329284477   2.4211319151015336   0.6543848343319368
H   1.9267381473261742   2.0278300586167815   1.3364437509944245
H   1.3172670374811566   1.301493122966208   1.4277898112604293
H   2.838605531421503   1.5946939927722392   0.9770351632261602

