27

H   0.693418602965973   2.2211594692299985   1.2595343812597943
H   0.1195678585449371   1.401844504003714   1.5245254574117892
H   1.1418328586698603   1.1855007416983554   1.8156430465140303
H   1.7993540132442585   2.116807291508052   1.2390263289422243
H   0.8623027472396037   1.9626735506198911   0.9062334684427615
H   0.7357090708849366   2.195077957829783   1.8967508510630475
H   2.7855833670298566   0.7141058810815679   1.3135231848330493
H   1.0446703467589489   1.5586457196102317   1.8645437350801657
H   0.5146169154078862   1.1757945023029812   2.544423126363989
H   1.4385178880049567   1.9039802425103431   1.6611787879405844
H   2.784280645968669   1.6515865620886747   1.7924159629653782
H   2.1008235215468427   1.033129952626853   1.749644959846619
H   0.4058793758441424   1.7869421593015202   0.9185133085880928
H   1.344096878984657   1.1267276755968734   1.3746044164718632
H   1.4847469673908602   2.1211328608970645   1.0607905921042216
H   1.6134071263394505   1.0323774536355   1.1465744290486888
H   1.9114759989556966   1.9090380698973963   1.3925658193534522
H   1.459935815433884   1.3276704836642317   2.364015091663484
H   1.6226955989562208   2.2467701791314822   2.5696741370065315
H   2.370076332410154   2.5357939854780387   1.7704469228650979
H   1.7309088356895308   1.8906002110303946   1.439990580526127
H   1.0222303364935557   1.968898583507721   1.8880361844576972
H   1.8600347036546454   1.929514033293015   1.22005770751267
H   1.6060157079864594   2.781214571253164   1.8119365250813508
H   1.9553703682210506   1.7021403715545607   1.8469800625238004
H   1.2690777772494144   2.548852986211332   1.8244620814897472
H   1.8899417669647642   2.2916707633322004   2.5046957621374117

