27

H   0.8112173581944814   2.096079737508364   1.2806597055161983
H   0.5572569417102351   1.1106672797673534   1.2325622770769042
H   1.2707918085841037   0.9406010705017446   1.819130297811917
H   1.9447377018435308   2.268349080066947   1.3872241155490588
H   1.0727152172894332   1.747811596836195   0.6568617983447852
H   0.8688668467313466   1.8848171518838268   1.604904837088993
H   2.5106495392891612   1.0530181330427566   1.262379851476184
H   1.0303265595335125   1.806387830060812   1.7146989698821804
H   0.6785640207713423   1.346014109520039   2.54789850912445
H   2.0000643916503527   1.7505522392314443   1.3317964376841065
H   2.8629950580591736   1.627082998152499   1.6393883560478417
H   2.312142358729671   0.8168126433779407   1.5609061239201392
H   0.5841796804125525   1.5301543334598666   0.9037693565632207
H   1.1760616995277111   1.1252699498691716   1.6079257214370948
H   1.6888165860989317   1.725600685661914   0.9389289262955192
H   1.5245982288248945   0.9741492153137327   1.1051423870229495
H   1.881503433753465   1.9661582304793148   1.3728290831619685
H   1.6195091378691961   1.1448416746505161   2.0774257426303353
H   0.6642118933157483   1.3060986404369992   2.393388063246132
H   2.478333337402517   2.5015555152128703   2.4089432754497446
H   1.8397980510496814   1.8000414076091467   1.7814569535766334
H   1.0219730875613002   2.0114978246545725   1.623705295183328
H   1.8741431818352532   2.0307823063320454   1.176959785272046
H   1.5693474944643226   2.700782902503166   2.0962056858066678
H   1.9771900026022486   1.6320339928615777   1.934499262843453
H   1.5482870428779354   2.616264852705461   1.9603680849154013
H   1.9419413426268683   2.041125311209906   2.7777210613800984

