27

H   1.2527750490004441   0.8627214673391194   1.4660174084192379
H   0.5372521297722029   0.18929317244575913   1.349197608808022
H   0.8897183107879354   0.5618530758682675   2.2818114001564487
H   1.3313306212416982   0.20055752939766758   0.7573489626456482
H   1.5546808927574032   0.1761141495055462   1.8843407044159075
H   1.2324817525075868   0.9304626408296127   1.3855846560432463
H   0.5060088403484122   1.7188085304944223   0.9814537146187448
H   1.2697525588205796   0.9334199266740307   1.3897272169288666
H   1.3695999864412   1.4620731305463053   2.2662924440150327
H   0.49131220017813554   0.6142824850324314   0.9486392981147803
H   0.7774748343390313   1.0888557277046083   1.6948019952951887
H   2.8206717083344315   0.0036431202083829217   0.9465878322059494
H   0.1559608727433029   1.5152238603584731   0.7382863175309422
H   1.9766579485552525   1.0616627923332782   1.5028511159858284
H   1.8332723804034237   0.2071401493652906   1.018122377890597
H   1.095468833238387   0.7468197558902113   1.7884646147386103
H   1.515806226410584   1.4187269247710825   2.31509647084825
H   2.121329305469267   0.6505424558407318   2.059880901538567
H   1.332968886821593   0.553980006399995   0.5005060480839498
H   1.7107480119112042   0.4973118515521209   1.4391248689170546
H   0.16657701126627725   0.14378862565588799   2.792612989378481
H   0.8331392997839109   0.9107576928316382   1.255715973506
H   2.662057570287506   0.5343423868574935   0.9515227641257268
H   2.1916332417494315   0.5966285741334869   1.8754939048962278
H   1.435572721760522   1.5468853844637964   0.7006955052490537
H   2.1299263238579518   1.4187730427548828   1.5040897374923268
H   1.3144778273220197   0.9695646575847183   1.4340332285341977

