27

H   0.24433210180472548   0.9695881771790332   0.6575270063534276
H   0.8738751891606742   0.6082723340516424   1.1867075550216013
H   1.4755769757819999   1.3628791364677777   1.4223826824884502
H   1.0978876406941542   0.8088544348048241   0.15161367156309238
H   0.9137106844169088   1.9082002418293558   0.2907327387730879
H   1.1272933657021487   2.2155997366573703   1.548256919182737
H   0.9338250973555423   0.6172062747048704   1.3384303195182155
H   1.0704851917260512   1.5756532570617074   1.2214903054375337
H   1.752941445561325   2.462844341472594   0.790803705128097
H   1.8845302357741425   1.6084450642826584   0.7491151650415212
H   1.1936167383991134   1.562087611037006   1.4973886590306478
H   0.9306008832520567   1.3862382978866008   0.540493520035813
H   0.9713908854539498   1.6185896011527041   1.0225905275735934
H   1.6410183068551345   1.0117455017043746   0.7467215570544273
H   2.0178198894998194   2.0347108702384396   0.8698599525219054
H   1.785039846608738   1.1515657938854973   1.645442794233882
H   1.9557874665345967   1.9862509639502486   0.9664071964063055
H   2.4305547191141845   1.8300870760608712   1.7367828860963288
H   1.3592023805695537   0.9965316914231162   0.15574099781962886
H   1.8101472009658788   0.4782594900973598   1.7201906782440495
H   2.056270542822537   1.1500985721385693   2.315985218510367
H   1.935221796219124   0.9313874317788615   1.082859759729553
H   1.6321072696884014   2.0019738735755315   1.0175240775503724
H   2.283603027654386   1.9554218453668302   1.815060784599038
H   1.2490539716852092   1.6285499232376381   0.967317378451116
H   1.9155713228255598   1.4170295123344707   1.68521177442924
H   2.1348116056413686   1.9406471301473094   2.8904296616689367

