27

H   0.5521503109932395   0.7272440209068075   0.7783368143857959
H   0.8781259812399593   1.3321610891363052   1.7358965661464316
H   1.6845079404022836   0.937432129627663   2.363175100734766
H   1.390848287803448   0.9734839854764316   0.30855277214196647
H   0.5935153231088948   1.6520609459527544   0.7788637281775352
H   0.9333905019500379   1.876734798263661   1.819133497025422
H   1.0974065061296354   1.5088309197136736   1.133949708131337
H   0.781535501639881   2.290585869537806   1.4681340103206806
H   1.8148304417421577   2.172679773934316   1.444463141629148
H   1.3923629005707243   2.517449581425923   0.9836783232941567
H   1.7201232707565233   1.7262148077878978   1.4473422002779621
H   0.7851376671108988   2.1115198700355524   1.91005851427307
H   0.8195895608200443   1.504606524080924   0.8752665062099995
H   1.521282719754472   1.6076028885735312   0.18557581912209592
H   1.016133652701182   2.4566100581292116   0.8828423944653749
H   0.5602286251947068   2.0255026179685   1.7370109336473432
H   1.679274415878692   2.496829291265961   2.120502009623948
H   2.5514116241666276   2.741896363589021   1.6337517139006983
H   0.610574626695288   1.759409233357782   1.0152048748875218
H   1.9885128203989129   1.4144269476910416   0.5636340922240063
H   2.6697616057144464   1.1083383138845222   1.355909449483013
H   1.679490787901643   1.8646517285673525   0.4350470987104605
H   1.2144254184422154   2.4305208841419583   1.0922823777511859
H   1.8761043713811116   1.5465955205546091   1.3200223871361607
H   1.273651023482309   2.5278898151291487   1.1772100231098344
H   1.9087308528269176   1.77396715395553   1.4341164215681008
H   2.577174839193949   1.8913467858662172   2.1478594679900813

