27

H   0.3427807190172856   1.4143164877706826   0.4889358919675489
H   0.9304424822278893   0.8424989402265747   1.0261637779252195
H   1.4526337645371548   1.5273514334936982   1.444560894527496
H   1.236033132404322   1.2860604712680492   0.251977185574759
H   0.6515678239634481   1.968312978510246   0.48161771966349504
H   1.1350492736735227   2.412683216466184   1.7981887751459333
H   1.0201504278362232   1.032784935625943   1.1999572364195832
H   0.9978020326712389   2.0191632034356273   1.446212646922286
H   2.0780393667740964   2.1567489119986676   1.0157124219802682
H   1.8027420030822705   2.0566400245038414   0.8795531383954371
H   1.6377380866543712   1.3953790832759727   1.596420844103506
H   0.6850621158999824   2.0129906971067557   0.9445386437867505
H   0.6021473147059913   1.6647209743806013   0.9658506212319056
H   1.254840741832609   1.105751122663505   0.5497493996780386
H   1.6506435911843251   1.6843567773180539   1.1519067114830281
H   1.180798654315681   1.7624533038106027   1.7807374732948147
H   1.8628382929159566   2.3059097373780886   1.0182602168587211
H   2.1224483421465643   2.046424684340767   2.050531734717683
H   1.384664043592159   1.0676604118502369   0.6223734700722764
H   1.8171940764271668   0.4868028793788054   1.5643690278849616
H   2.3098379881704503   1.2345695713319633   2.1085455736044527
H   1.9807165658785122   1.477396973620847   1.2487142541867542
H   1.8420652351494338   2.4778887905996143   1.158249618530272
H   2.2760789741752148   2.1336114213310147   1.9781026436131668
H   1.0902412382349935   1.9852467624428385   0.8657816944344557
H   1.7795192254160606   1.442053070203842   1.5843476256978126
H   1.4932591844876282   1.6405130699179333   2.734947688930659

