27

H   2.108678236620824   1.2107589539474004   1.119683960882737
H   1.8204546276036009   1.9277322199444389   0.4571841878515
H   1.5426899423641978   2.296843624491002   1.5613938811977168
H   1.5067019647294635   1.8853778982391804   1.1056155294242687
H   1.4613082423878148   1.233310351008274   1.8866898269978631
H   2.3388598772416604   1.6683889655260595   1.6794146392693932
H   1.8297211909347841   1.598476823592607   2.005701444576821
H   1.8974410425366828   2.352949753380538   1.357109160274188
H   2.673417263842949   1.5837815197119745   2.5882360034650382
H   0.7568503072222702   1.8888623442070989   1.536873231976415
H   1.3953657305788958   1.3650282372781837   1.064034377169298
H   1.4298650161231172   1.6561509502713565   2.2787707216757096
H   0.9422465693399827   2.3744318606145285   0.4939161346732301
H   0.029016288764450865   1.6891103825788287   1.076934435247409
H   1.563078893878951   1.6903219155529605   1.0223276237181915
H   1.349298167614514   1.5421444727671108   0.889642096932049
H   2.423816753078364   1.835813052533559   0.7940569078957689
H   2.1570789969357422   1.3079779094191535   1.6138378402807831
H   1.6233016855536542   1.625699676066682   1.836366762940782
H   1.246937156315846   2.5131023835709443   1.7833576569461362
H   2.329283904104517   2.3441862451274007   2.0424497713312655
H   0.550636108308188   1.894241215934921   1.3582532672471102
H   1.4644018239724277   1.6294837451651905   1.0424511906637854
H   2.3692554937009596   2.211390059639695   0.801944160222586
H   1.7736277226241015   2.540757881799507   1.4509313548668268
H   1.9757976883094568   1.5316793486735636   1.8190959753120892
H   3.0361563695744898   1.985817592974295   1.421434747077993

