27

H   0.9291160432035924   0.11470243853470896   0.8891409374883009
H   0.9600830237191834   1.0868335371290452   0.9851765549955246
H   1.5503521497166826   1.4202594917006317   1.666003301884355
H   0.6380411785037271   1.0477625783274562   1.0363843914503834
H   1.6094013804718597   0.6037234886674817   1.5705387417380001
H   0.5354317526848699   1.27022608665536   1.9845994360794297
H   1.7646187070555306   2.297360947443409   1.8856084694673836
H   1.2718016909635084   1.4669131450115092   1.8615108879205609
H   0.7487894042264053   2.2100064270778343   1.4474920136546945
H   -0.2940938378733241   0.9638241025784794   1.8203387068518175
H   0.013955420103899639   1.268414324684294   0.6966447423685371
H   0.6701444951807344   1.0072385059991888   1.9841070062508204
H   1.4202353052609984   1.7629688613195555   1.2992615126764413
H   0.7110680279843511   1.2096481159834658   1.6388689177460258
H   0.4565760042582675   2.1728584255550354   1.3336105069648339
H   0.5557203737228833   1.215695620753345   1.3225379612017907
H   1.621154150657426   1.0916941399571196   0.908828888233174
H   0.26759179693900215   1.8842806335415836   2.23233645138448
H   1.1470694943875097   1.6872779226124053   -0.5232383424740066
H   0.6648537036812926   1.9301639190194426   0.19942075282839988
H   0.9249241987515189   2.123833592006199   2.0399177275282776
H   -0.2727168630903818   2.0220439689186667   1.3610240217973233
H   0.9613007602923059   0.7355833065147628   0.7839974846371253
H   0.046292052993199724   1.1462143928934332   0.6422347378711852
H   0.6012972190801753   2.1736022985447683   1.930097642313591
H   1.138982797989548   1.9197800590478764   1.0178292826976172
H   0.560098358149865   1.2425891119427996   1.485782029045348

