27

H   1.3043723120726531   0.2133872799538034   0.9425907566738253
H   1.058281179335292   1.3019058890454667   0.8270933246104603
H   1.4807689515769349   1.6086543875939174   1.5666218181015197
H   0.5788347262923098   1.1928355226319047   1.1159868227307832
H   1.3939528088981352   0.585952364149614   1.4600714648991402
H   0.7014077110594917   1.3887788812742574   2.188111678127499
H   1.6086879849933602   2.6275785762212673   1.6943739555766684
H   1.281308276988647   1.4538606298864623   1.8620404527701426
H   0.7867196627808204   2.231568240934424   1.221157940378156
H   -0.4339422174623053   0.7443957521388376   1.637875245373784
H   0.07583691207046835   1.2035755243195176   0.8204488858383546
H   0.5549107029110085   1.0962437992263698   1.7200158654092415
H   1.405470471073666   1.6451515358469146   1.2309119000864444
H   0.6649190033020286   1.2626121611529688   1.559068614697951
H   0.2304717263683406   2.02316679232545   1.3001069826468699
H   0.3860893524449233   1.3257243157452951   1.3564636812546924
H   1.3636484620578697   0.7042811449375102   1.1301674820448817
H   0.5581296015794152   1.8807063021033104   2.2142560194728613
H   0.9450728336818568   1.6657419115222516   -0.6801733687524426
H   0.42625127519846473   2.011077925471593   0.07358093055895397
H   0.6566532489719061   2.0184734430176072   1.9898882112966034
H   -0.05426268791777326   2.1930456871069626   1.289416749650954
H   0.7259583173885449   0.7839585833390702   0.7295026826849095
H   -0.16737058657406056   1.3148873306306845   0.7955628155774419
H   0.5977013795032209   1.9950579654419431   2.0452797796822155
H   0.8222690385847053   1.8266085798639635   0.9732709501097976
H   0.43030382800761613   1.16258234463313   1.565012991848994

