27

H   0.9225670767332331   1.7050175797050946   1.6531146157636174
H   1.5357594806887938   1.101936187375114   2.4105790005919014
H   1.794818961954257   2.262656685786049   1.5500788966054266
H   1.4404281406887602   0.9224079048359962   2.579431177687774
H   1.9961883357707007   1.2590972052099376   1.5179879190602652
H   1.1350888392226823   1.67937932419005   1.9004825982196287
H   1.58935615271342   2.3209935496034615   1.457081227627342
H   1.0414697107719444   1.3882760355823804   1.4613528186130365
H   2.0549354162535143   1.2455035648665533   1.6672190287750603
H   0.6929435427494219   0.8774976796307274   0.7396448296744859
H   1.568524378732987   1.983071529469419   2.0246330013682656
H   1.2192675111735078   1.651947067678638   1.1238521961388743
H   0.14273540977476618   1.4851919436779693   1.3633294773764895
H   1.0630468496750751   1.7722966357866619   0.8162946989297948
H   1.2764213399479933   0.640453577518035   1.5061727810300556
H   1.1111075554084318   0.742772604484961   1.7013743288537717
H   1.9407238531526685   1.2895414805920997   0.9119949083720821
H   1.1891655752878616   0.5908150159975774   2.851225773213764
H   1.7127940401713622   2.4387154655428054   1.7989113542014175
H   1.8353742682856313   1.19753646296543   1.3860105176232236
H   1.3231042667903976   1.5190314532757652   2.166319853440894
H   1.1017792266213458   1.3293315543116757   1.3149757520479963
H   1.6018851472333715   2.2289515908902655   1.4264480740281613
H   2.105844807419002   1.292188204860135   1.6549490619950626
H   1.8916340385189558   1.308896219649854   1.8446621112525015
H   2.473156856169608   0.43783497148353134   1.7116176792304911
H   1.4908758213582944   0.46856134601555677   1.8865318809988447

