27

H   1.3057957736269883   0.818091461504884   1.5261530597736952
H   0.3247890451368866   1.2524568990400082   1.7110038611725062
H   1.0685339416596165   1.4833866776914846   2.145535644661692
H   0.8427068195295366   -0.11269626973020928   1.7215909482830896
H   1.9914343180920362   0.2909709558416575   1.755009175605233
H   1.405029310910595   0.9812358349455901   1.2949079057004036
H   1.0329545341257436   1.7457143004500686   1.3264903298456874
H   1.195135745346883   0.8252121821851909   1.6052491035391478
H   1.9020864989387012   1.6776583857376441   1.7629816181722466
H   0.3160108923398404   1.1622010171153798   1.060872424856246
H   1.1975574154519362   1.871132315758945   1.3361481872030374
H   3.1911927427671474   0.06842920878655617   1.9199726187536839
H   0.9889825612268054   0.5271196282555011   0.9283069529046315
H   1.76589865964118   1.1031475728571805   1.1625952666432768
H   2.0897351901648853   0.09175371022342936   0.9306203551532655
H   1.7561942416505627   0.5734510889668133   1.9902128354291462
H   1.7928108472342543   1.5311791706718374   2.0237965189954266
H   2.546022981372763   1.0595981911509866   1.4835818706291344
H   1.7195286866370947   1.2652992182208687   0.8219509738944473
H   1.049777202115034   0.7050422900207004   1.228423611193845
H   0.11190154696854865   1.184077910590113   1.366044894088133
H   1.7911114093987255   0.21660743599105886   1.6540414821059
H   2.2595696204552747   0.11522664446472437   0.7239947963611899
H   2.3582381906570142   1.0356742755161452   1.094094643201412
H   1.9432491795007398   1.5863614536321173   1.8090864105723103
H   2.135234075695527   0.5954824674473771   1.7623588258974785
H   1.2772845664097143   0.9247836033306919   1.409840147616251

