27

H   -0.055541381053075704   0.13135489585306   -0.2867890082948285
H   0.4332622405572389   0.17703879493388197   0.5236521985012161
H   1.2179043798189466   0.4389631237219255   1.3117674396912056
H   -0.0014880800123173218   1.2016159126392547   0.32646113743632804
H   0.7384928536251235   0.6117457989159896   1.9930648724191382
H   1.4576511742453606   1.1204344716919656   2.6399063257779196
H   -0.06449847132050991   1.472389511704648   1.2902983334698717
H   0.8244545920803246   1.975955475350709   2.023202548335355
H   1.0812494340087513   2.033737997174465   2.9398881944701496
H   0.30102023322876237   0.8596310493927196   0.37463395799671956
H   1.3177055236873834   0.6799875081913991   0.6802139333192312
H   2.135207740760347   0.8652122648924401   1.1899750073210442
H   0.8326679024709576   1.6461159736767772   0.6149145557461284
H   1.6892724109838801   1.2510825616039245   1.339405369905593
H   2.3200947565611667   1.3474202900392072   2.074272696609982
H   0.6521391313034417   1.9975276060034362   1.5110260668796116
H   1.7301541493344659   2.182097000269265   1.7446351438188645
H   2.0252893092201396   2.4239658632876853   2.7096464956207833
H   0.7874520793077038   1.7188149120217524   -0.1737856259214145
H   1.5344183381850436   1.7531669231602662   0.5964070874418615
H   2.648745527412236   1.685130466840908   0.7910368393581243
H   1.7262332181850106   1.9865183805294593   0.3628162427934842
H   1.819862142767943   2.3542645564519704   1.51025447607765
H   2.83739152952045   2.183620247576674   2.06915445532052
H   1.7479614521004059   2.3129352933364635   1.4182225314349164
H   2.1232088852831734   3.2475035053730434   1.7784791403734563
H   2.6453207092153015   3.1125740250423464   2.55400066565455

