27

H   0.6167983174319792   -0.17158646664073404   0.6655567182285775
H   0.3586885406849748   0.9668824974207875   0.7211693761269226
H   1.0753922612848585   0.925737155010706   1.6979388182405166
H   0.44608946777157793   0.986271846317437   1.8415273302202895
H   1.6312414709162708   1.1742592182587452   2.186863075879601
H   0.8416592109601111   1.5478603224368745   2.627467392390261
H   0.6590991916635347   1.5514284594254601   2.6737989724312667
H   1.2076230543791249   1.8934536195744038   1.7082050099716468
H   0.6406922678176882   2.3047772894411547   3.2404744156391616
H   0.6984975218494284   0.43851231019309433   1.4266101119911305
H   1.2586077945235288   0.5121830171196433   0.6592762556142171
H   1.9293434072189581   0.6224630523275999   1.3447757270206981
H   0.2748895595972364   1.3888257820051262   0.9019189469860354
H   1.6579197285430087   1.2374541435422142   1.2049796169216092
H   2.2565363028746743   1.222528233148421   2.07073603541315
H   1.2972093681977346   1.4799422762998786   1.7201571363859507
H   2.0118102548126657   2.1187026015440398   1.1312738322615372
H   1.866806400948366   2.0916498515228983   2.3425981615579765
H   1.3450645199540134   0.6479239765052742   0.7103121705905655
H   1.0695570958062555   2.00402230435394   0.7224247252754846
H   1.8583953640211779   1.4983136360437084   0.9815247299098049
H   1.4090634197796617   1.1218909893489204   1.6794469734566253
H   1.7379639356658656   2.2155611464941427   1.5159755610986565
H   2.798883704189922   1.8135176277484977   1.4617112646470658
H   1.3342544329566997   2.108434015059224   2.4689840073016334
H   1.0436175678677315   2.8846021401694117   1.8077819596945726
H   2.22521873989911   2.68845630489445   1.7632955869381786

