27

H   0.2809100759993636   0.6856876875325636   0.7956907584193688
H   0.9679381168659793   0.944045427042296   1.6100957395252986
H   1.7242624334924332   1.2691311875130498   2.1889953672019753
H   1.3053388553118683   0.7633646818436411   0.6208805480240911
H   0.6430682363470184   1.60701295286011   0.7500063840458291
H   0.9692739071463384   1.9140154267756175   1.741759682154552
H   0.9075094271549317   1.4076911141273178   1.2078051913423993
H   0.847903001120496   2.298087991433869   1.6848348099380182
H   1.7887511601369936   2.249655486622248   1.2805172260002595
H   1.234250704907978   2.558743157831658   0.9063841588996276
H   1.6724498267288124   1.8159888475062806   1.4055009962268943
H   0.9072685727823613   2.2140167020520525   1.8142956910901948
H   0.6206299330691948   1.6649898094821063   0.6831626270774911
H   1.4054095597396623   1.2666676071512546   0.24524714588147598
H   1.5332085541208598   2.3663994812105655   1.0538166131067261
H   0.35611449824573843   2.195505241217387   1.4760962622110867
H   1.69214820804332   2.6836680204003085   1.9183501534681533
H   2.711069992918921   2.681122047059022   1.5418594947776425
H   0.6585459035736435   1.6770030753858458   1.0093521769102218
H   1.6624072591293884   1.2102820557129264   0.6078107533418136
H   2.616932037654683   0.8788560270196073   1.5382522539544972
H   1.834622374359353   1.7980576918850648   0.5896144436135203
H   1.411933833563797   2.5717201193156627   0.9208966372391735
H   1.8429119918397106   1.5079029531361723   1.5342150898756137
H   1.1802288419945197   2.5236990919808977   1.0269249484264
H   2.061855891844467   1.98572578111897   1.2791916863127022
H   2.5891222435881738   1.8744804214536523   2.144354151231407

