27

H   0.47672911670150386   2.3362790750223454   2.0564717655951408
H   1.0809593672973883   1.7595213802853884   2.568493388141842
H   1.1554607606371614   1.5252202123439784   1.5649353094993952
H   1.1046806013900685   1.7301077993332727   1.1098340196695142
H   1.512063380644656   1.1277679040142488   1.884169006130862
H   0.5253277713732766   0.9143109225405317   1.2719870157923312
H   1.6582762701747382   1.103543187077972   1.6822966850858234
H   1.5073158080301863   2.1003661535019864   1.7882697511309156
H   0.8695256829688034   1.0167194086993054   2.2970309774380744
H   2.2093602903479233   2.3986586276570874   1.6028259192664613
H   2.7106847946790253   1.797120696130709   2.3115298050395663
H   2.186529077786375   1.5731393734999772   0.9173165764451433
H   2.209244911811135   1.4397343112631253   1.6668071528866264
H   1.889192854272114   2.3907641660903054   2.114027351363779
H   1.5777208229768338   2.3806571701376633   1.0923425866165668
H   1.4052202280514299   1.9164313472729102   1.015187366468846
H   2.1344038456827397   2.600872934942267   1.257767543794377
H   1.8235438764161294   1.6070343447842528   1.8367359552976972
H   1.7497173035977927   3.2196099757014087   1.577174613903556
H   2.1310769831140903   2.363613635154736   1.7571515107901348
H   1.4550889495643724   2.433366595176458   0.9087473162193943
H   0.8240140548658721   2.773833423706758   1.6630962926350763
H   1.4670820527519473   2.3874601558658712   0.9918764009314086
H   1.661260872177967   3.200445738726112   1.691306028107899
H   1.8827227813390073   2.30609131134357   1.9180579335139392
H   1.3728959607827194   3.0262787835370135   1.7822396657244355
H   1.0775254110533978   2.1122604925563118   2.602934291529795

