27

H   1.5392517068469196   1.2171865975156915   1.6369688379571778
H   1.5202762674678938   1.7916443738379637   2.6531324535220264
H   1.2878617303944162   2.3152003767430642   1.703459106777638
H   1.1228527894175528   0.6143748078314338   2.3391329350923384
H   1.9527989535630041   1.0982721911834707   2.0790995689557077
H   0.9817795486293466   1.343326079223491   1.5880409458541904
H   1.1517597626966591   1.5350847359429858   0.6009071920741503
H   0.9858098104624076   1.4574510308316462   1.6550012617053793
H   1.9590060701016676   1.5772234978476614   1.3222773872769997
H   0.8505623069109838   1.6285253896997707   0.7430967328519464
H   1.330611150995105   2.200071200312047   1.5200142455189134
H   1.7111631722977134   1.344428651300493   1.4729902637316268
H   0.582856447760535   1.2439133327627743   1.8041603366509926
H   1.102247539728634   1.2243214078166662   0.9828341541437462
H   1.3625235280395513   0.39890793096717797   1.2938491140051738
H   1.5316712099965077   0.9553148571503243   1.4474566040254166
H   2.047614136011635   1.674674848889303   0.9679719287758012
H   1.2352840760922008   1.2782883427228895   2.2950915807584105
H   1.5295407358781727   2.3170449072370864   1.7986732583414429
H   1.1366571361909372   0.8096672765670441   1.3549866687271799
H   1.1078329035135819   1.5675496832860794   2.311329939424584
H   1.3456668010574402   1.535983815468476   2.606381105778437
H   1.8607785079707682   1.860017427187508   0.8283517995735702
H   1.9088801661320502   1.512249849370324   1.7509802351515973
H   2.3883429284853066   1.3520709645863727   1.971522274651391
H   2.1051784635155175   0.546698551084767   1.0988995866590459
H   1.1639294862065857   0.8938793847351778   1.249963819619029

