27

H   0.07890574571741599   0.41120964164822293   0.5544790313187874
H   1.0540228528510112   0.19874090285940618   0.2813503708317762
H   0.8406081297893581   0.20780389149679243   1.2577374090377114
H   0.5132822013188387   1.223367783000544   0.889837168667492
H   0.7868371883001772   0.30369462238243905   1.2494715977211044
H   1.4624006447292557   0.49871110878766495   1.9340561106554335
H   1.415016128154667   1.6231095685052805   0.9889254896394138
H   1.0944711387590091   1.0896255339847065   1.8473845409064105
H   1.6063511587959334   1.192768008190617   2.6111572600131447
H   0.5264230571812557   1.3000356070354944   0.23126514421017857
H   1.5596466358314303   1.0770489167081954   0.3337880709142069
H   1.7066046030462578   0.7976314753867286   1.288130341436492
H   0.74375181242586   2.221782621405605   0.5601179966458079
H   0.9396693497805688   1.352807462254044   1.1907683558854327
H   1.7272597466133413   1.5651442093773391   1.940458531408724
H   0.8718843459897179   2.2927955322727973   1.568005475596263
H   1.813185990913039   1.9162139589666778   1.7618189544626053
H   1.7339241644801133   2.1632300902339066   2.6983604011102607
H   1.8906508904415813   0.9927566591230653   0.5138351182281408
H   2.2779870351676594   1.939347618906207   0.3421921787079188
H   2.2474588955200026   1.5970371604673639   1.3028445063909408
H   1.6385558587379507   1.892780140463084   0.4013193035996442
H   1.9176892343375525   2.0644938570267226   1.2981200114628817
H   2.752622491711771   1.9573563426023095   2.108810511440745
H   1.761708827020193   2.5102202900958273   1.2699848431893905
H   2.658976604373283   2.4765679710951916   1.7682698788031437
H   2.4152204182559935   2.8773430566337326   2.583271891007092

