27

H   0.5876717790598861   -0.141929490647003   0.43910160780228086
H   0.3317678958327143   0.7223267005092489   0.8535264236071018
H   0.9871501386426037   0.9144365557990047   1.589083546216627
H   0.4481232137878058   1.2097016005605874   1.7575097602999534
H   1.6622858913734015   1.3231234230646127   2.4225127180387243
H   0.7341286322393187   1.6619389895908983   2.4970195925985736
H   0.6036783265365671   1.6928064745247122   2.5446195685159463
H   0.914543347943711   1.7450036732029834   1.6431556211894778
H   0.5295703842072252   2.5958508157463798   2.9269026956813424
H   0.36546829727993074   0.30190760055495214   1.5515869135525442
H   1.1915894810998167   0.2672703329088114   0.7551069089077851
H   2.0820953883533524   0.7310995886149712   1.4910915586552675
H   0.3267537599135715   1.830312208461195   1.0370190924563465
H   1.6882313002736298   0.9890437583172328   1.4593616956052253
H   2.245643823156439   1.2590342994266783   2.312352582128014
H   1.0901012629280191   1.5391698091250632   1.6098869203089456
H   1.5313450584915838   2.2946829865860656   1.1132856168427647
H   1.6810821041895965   1.9448354832529482   2.905662369228077
H   1.2769738019007986   0.8529283605954805   0.6801443692079044
H   0.8484255059711346   2.127567985571053   0.75989025406502
H   1.6000599675228935   1.646746724897368   1.150698826735746
H   1.5342911920095041   1.1473778967430814   1.5738438529032353
H   1.5960249863366098   2.2100850942983166   1.3816732527897098
H   2.5528756173861393   1.8200575475017   1.591197375615772
H   1.382455911939385   2.34796375455803   2.5210504844689225
H   0.8625573096570704   2.8891588787046154   1.5276921793415548
H   1.9570021945434382   2.626018735956631   1.670746336144179

