27

H   1.348075709949027   2.381327415255179   1.0528514155394033
H   2.0820998745947352   1.9214783760650107   1.2921014689175758
H   2.410806915930733   2.5880731476437755   1.8907718466274004
H   1.9680510450226887   2.925178643644091   1.6395865345017162
H   1.5436896867348044   2.62224745896765   0.6085702332625824
H   2.246245655693681   2.121521893658367   0.9662035129946541
H   1.2516791677280525   2.3698145868630163   2.0624749216859346
H   2.1407814766388333   0.9587996304414477   0.9985633344821934
H   1.698545197751705   1.6755619405713038   1.6328491548018285
H   2.1140954831409204   1.747443827264248   1.0278618156796346
H   2.481815247843371   0.9673878515784567   1.3900345227920328
H   1.695003555098523   1.6869663155564198   1.964788065617264
H   1.960599310657921   0.6938922795270192   0.8882511356534324
H   1.8976315865122473   2.6434468745383417   2.063540859724003
H   1.3706205644570189   2.4441356690986407   1.2815801681074686
H   0.9837551015333411   1.3921491271889248   1.932560532680405
H   2.027986493889298   1.758280771551025   1.7567971927815513
H   1.4744135892500236   1.1781793220326209   2.7374454084216673
H   2.0624581550581502   2.665128613398355   1.7748560458222533
H   1.9623141381583011   1.3704873500182873   2.1665493813767833
H   2.123275153739068   1.9610248994891974   1.1018094529317055
H   1.1237512602360593   2.581100757431522   2.178263588102463
H   1.5844101450694486   1.9347794037329271   1.3838992082681254
H   0.7368917840962237   1.7103127654597592   1.8670027559156541
H   1.9428951862140476   1.7539740172683513   2.532566088611663
H   1.2949279008369834   0.8587779906803062   1.7671385289652994
H   1.2317739397521617   1.4431360040429007   0.8453150724112153

