27

H   1.0904674749467536   2.351460656020628   1.3504686309641878
H   1.9172909894580283   1.6061693075505765   1.1968676516828158
H   2.281142547001932   2.3437970511895525   1.9315708500292623
H   3.0048002663349727   2.3475397869947305   1.992337533192287
H   2.9059083364490164   2.09448906467757   0.8748611414301457
H   1.354477550688328   1.772404522068552   2.3377787479318934
H   2.040070614507737   2.256073371389127   1.8178261404947775
H   2.7477923790010417   1.347874703062921   1.712946288025679
H   2.340551365643525   1.6079665442618583   2.526606425413776
H   2.0504266323748723   2.3129840845004033   1.866355707737161
H   2.795859770781465   1.691785265381957   1.6456749720123216
H   1.91316372124605   1.5177967131533867   1.2550345434956036
H   2.4787938998730685   1.4415120295444006   1.7896193447320068
H   0.5292910551246119   1.9336957166960798   1.626870795706573
H   1.3957519532302312   2.2744005758287544   1.528734145813291
H   1.4523820960836544   1.2040190132222188   2.2658811002087713
H   1.9021365599063433   2.0280110715272657   1.8816360326194101
H   0.5230166921364838   2.2557054606719946   2.677352245128122
H   1.7367152006596092   3.0706630946375606   1.2928032070290882
H   2.0509260369715037   2.329262475562091   1.9519981286305483
H   1.2437933462343276   2.19396099340177   1.5140538787666882
H   2.061134697670077   2.2881502145866732   2.381314440630905
H   1.3845672049639597   1.6490213788417105   2.1209727100892324
H   0.9621852725491461   2.6488796078668058   2.3667875514532453
H   2.042173211288378   1.2381558480320567   1.5612476636436095
H   2.287296129518821   1.4411330521189443   2.579155459287104
H   1.1846551467329762   1.5614737896517452   2.6685006151888686

