27

H   0.22077526184439622   1.369094399994961   1.587176302112997
H   0.8377010618748336   0.058115834162889186   1.0643941088766307
H   1.5180705866866229   0.2599772488306605   1.6508907844121994
H   0.5233946458013492   1.0340316506984553   0.260080197549975
H   1.5616311160769303   0.8116167758837921   0.6788824047813091
H   1.4630367551601242   1.3942886947550888   1.6299657428604823
H   0.5834766256219901   0.5552085290679099   1.2186071805562122
H   1.6225887597295152   1.0443843762054257   1.6324569167787113
H   1.6953948198143076   0.8020116074947754   2.5393852553228924
H   0.11665638256377205   0.6470796525674912   0.7094498887209306
H   1.0846616951409063   0.9590115504915353   0.626423922160873
H   1.7277495511482992   1.232500748397659   1.3906627605706283
H   1.10549436511845   0.6830386052734421   0.9417598868789717
H   1.5665124141147573   1.1905204044166968   1.6138850317652114
H   1.8482968068121977   0.7741671564130811   2.426409776998369
H   0.6064641041506827   1.5207401154389024   0.976806729667509
H   1.204483256028969   2.057557697012617   1.8008747370166536
H   2.511688036324214   1.571745556286228   2.034954760828521
H   1.2020102555473187   0.17060134085222167   0.6550434225455505
H   1.8448090125098089   0.46241917113650927   1.330239787244238
H   1.8803832617406016   0.8719114751020992   2.249050954382952
H   1.7480534082171304   0.9693233580247513   0.21240892019522273
H   2.4376270829444593   1.2053695654665249   0.9006655430566911
H   2.4101712112009674   1.599602178467864   1.8663088208606797
H   1.5889586528523596   0.9165729478945227   1.2508245993082643
H   2.00723415013877   2.2674993081557964   2.2410572252982153
H   1.4012535516960547   1.6603678537964228   1.918706420729402

