27

H   0.7018732380317525   0.5139831971113085   0.8101847975977997
H   0.7372359134314864   1.0401328611343368   1.7816315049306524
H   1.428639793672295   0.09059685278577442   1.2450646573435793
H   1.1714641357751783   1.2702034165315101   0.06258924386008233
H   0.8745037105790512   1.7306495576561094   1.082465072978801
H   0.7410967631089075   0.8373416439875397   1.462382634626379
H   1.077077383114097   1.5121456318103614   1.4179505807789408
H   0.40136698097798207   1.966742637730914   1.9924402008396433
H   1.3009715054225506   1.8481723751354127   2.346079892598395
H   0.8626178431747206   1.3187522850527813   0.13833078694006934
H   1.09875621626171   0.7613825137714603   0.9385695744413882
H   1.810001598075049   0.7750267345552577   2.241522729306517
H   0.6932291229397844   1.795128424382933   1.068407291396564
H   1.6368680193976304   1.864828900234889   0.571654762444431
H   1.5410510056474782   1.3998184842611388   1.4589499654727829
H   0.8610774561008229   2.297869873944809   2.2453448572378085
H   1.2694251813172726   1.7823434585116584   1.4553919365720316
H   1.9539860585312092   2.486796364573851   1.7350819377155522
H   1.5229143286427798   2.125597902987946   -0.21378588182528271
H   1.7961354326689305   1.3936697405136136   0.6352794542074267
H   2.302137370088626   0.7617623561227315   1.3302213494497634
H   1.804759585508674   1.5269446136079061   0.9161076027773702
H   2.6035474676848542   2.003966482218101   0.7346336581424182
H   2.537968310028729   1.6067072539363128   1.6128546821843655
H   1.5432837959232497   2.4274583125639273   1.2665108285372941
H   2.334682933814206   1.6085794768871202   1.6353400208149849
H   2.3243851264747746   2.007357383783367   2.5614636597927585

