27

H   0.8691582293883913   1.878123961361292   1.8221643778848609
H   0.22650859880440144   0.755172445255356   1.519139908157987
H   1.0644617219797776   0.9382321773979777   1.988678026067192
H   1.8077601959668057   2.1135444768662546   1.1732748606883914
H   0.7995757009369155   1.6737100642326237   0.9565176626817644
H   0.4100914017177244   1.9508687086602277   1.867580846577738
H   2.4670065801491354   1.144728135981257   1.6581522983194878
H   1.0111548501266687   1.1495056179598022   1.7465627650026647
H   0.5496782195939265   1.2855103941341974   2.882158176620215
H   1.8174408134957734   1.7799123115308348   1.8604537917589983
H   2.816123647215413   1.5881420231723016   1.5124777877944247
H   1.9461507567596918   0.9801797348090988   1.5296378347888477
H   0.7400389155531657   1.6370685071095294   0.9952547865446387
H   1.353847755199435   1.0547259939451328   1.517976391085541
H   1.5348046339425705   1.9888665302298156   1.3290944949431858
H   1.798731609313641   1.360183649476963   0.604794534853131
H   1.7470724741675885   1.8779421979923232   1.6019444890843493
H   1.2550720346666557   1.251396146210869   2.1830100928837175
H   1.5126018887166384   2.4165250432592646   2.4973116217243962
H   2.2392512230362174   2.730701435219349   1.6621871262755106
H   1.5819337452717497   1.9223972086975145   1.498177155616801
H   1.0352125913628067   1.969644272766717   1.854933012750878
H   1.760039867636487   1.8899326451562648   1.191073827200383
H   1.347840636473061   2.9414378073681124   1.7297766239625723
H   2.007617471723657   1.9367681043813187   1.5184460584154147
H   1.2221029631881075   2.691806410702424   1.650915540976855
H   1.5050457146745209   2.180560729486113   2.439870814493801

