27

H   0.887236295808766   1.7642372172090448   2.0866486980171404
H   0.0059285704517979786   1.3853944844815906   1.7992881148231132
H   0.9873966393369052   1.3316698685346655   1.2907533291439286
H   1.343953648281744   1.9064902451469277   1.2247243208186789
H   0.6736519092637449   1.0709307945080726   1.152974214639423
H   0.15047700017487803   1.837637822072195   1.4722631926885712
H   1.8506131768808305   1.274808619940057   1.89623572574968
H   0.9281880660682459   1.9333124521909875   2.0026083843878077
H   0.2106027560508656   1.1569438269268337   2.1576548019131394
H   2.0662170205962447   2.1136676536806287   2.4147703270876923
H   2.788826404733585   1.542596285452538   2.00823839319777
H   1.955323665318875   1.399526045683876   1.50068500773028
H   0.7418993552131874   1.3700612358726518   1.774121171546644
H   1.8258618884747093   1.2482538294870122   1.7507781421787263
H   1.2639911591741144   1.8678934145149104   0.9031967809607243
H   1.4382757191067366   1.7574767614098414   1.071856365471648
H   2.0225213500955195   2.113536448745923   1.9525878774309948
H   0.9399241785177289   1.1709731757580084   1.6111919927951925
H   1.4150517447946274   2.8864398654327292   2.1573272223484774
H   1.859191903748941   1.9859555565873974   2.0157517550183153
H   1.5457299836950098   2.1028793659284766   1.0013202478911924
H   0.647049082325512   2.3753174648567965   1.8043785547446844
H   1.5257638918450391   2.122340508198765   1.0305177609748635
H   1.2739540117636783   2.98311810777186   1.47411250277616
H   2.0612960542315535   2.144255927817323   1.5146700551555206
H   1.665042959622563   3.08138538176909   1.5600772381515537
H   1.3536525319570636   2.4973202600088698   2.301548699375753

