27

H   0.9958727465741355   2.198933525419668   2.1397715536740765
H   0.6922031066659318   1.4011836263389594   2.7143730548980822
H   0.908298060247636   1.0295307344032136   1.6363433752594325
H   1.0414009738975216   1.8526456602150774   0.8716766649621279
H   1.0508440134447736   0.9891974385576077   1.4334442637647489
H   0.21781290304718742   1.6422914689420385   1.5622516604868029
H   1.4199779545946252   1.2357608296622173   1.976085224165629
H   0.7052478740255859   1.864574153476659   1.7553954364112634
H   0.18090872399938945   1.0508326043064695   2.4418424188061336
H   1.9864324239797089   2.0228652220460757   2.4289358145833106
H   2.7980635567296748   1.5557058150592318   1.9429208856553952
H   1.9491450991514079   1.3030607087377275   1.339528915350261
H   0.890668446443296   1.3834252154708404   1.7210911151341908
H   1.840830713416572   1.3349825726736633   2.1481166474731115
H   1.2248788141874836   2.2753647914349306   1.4704335575485654
H   1.4973229214997024   1.672090535279348   0.9128792618642697
H   1.7815814979753943   2.395452751172102   1.5643537066476174
H   1.0063069868118493   1.3864193456203888   1.7890419115269174
H   1.4057840479580703   3.182914360251451   1.7750435027701152
H   2.241120955872897   2.710133633646525   1.636309477232949
H   1.486768405982529   2.2173072794783812   1.2083518654520282
H   0.8932884880843823   2.294643938454791   2.0043802900768712
H   1.806071635622078   1.8731264159294472   1.2906756583794061
H   1.9761840144207887   2.9257818836325944   1.8106396402560312
H   1.8492391539168729   2.25229680734336   1.741412183796659
H   1.392334708897092   3.2826912040549847   1.5627565837427018
H   0.9012281647178142   2.620659561039552   1.9907382436200642

