27

H   0.8239789344698661   1.8197269556469036   0.8431233160104682
H   0.986717868673016   0.5712944303549178   0.8793361399271487
H   1.3025573175581184   1.167482187640456   1.7013685935208631
H   1.8378851920902866   2.2412528597378234   1.0263280209946446
H   1.093541755736108   1.7066525841181999   0.592714772193096
H   0.8510877519654809   2.191247339724362   1.7895274254136921
H   1.9243760799158942   1.1972630024829791   0.8292087354802271
H   0.9955970543769566   1.4164198667493981   1.6275943543356126
H   0.9617207559365644   1.545677170871962   2.7110006343485584
H   1.4687367636999498   1.4160083702508102   1.3748111467850277
H   2.437863917194226   2.078900311283818   1.6727662661426954
H   2.12813066891272   0.5337235675567219   1.561634816702493
H   1.5859221630267883   1.7217175536168137   0.20773129679040314
H   1.5327166132425   0.8202755310732086   0.8634282573761015
H   1.6595833108960534   1.6141310765488854   1.4142020811944493
H   1.5865109689526617   0.47397425751693767   1.6114134358860188
H   1.69810901450222   1.7385022792655058   0.8879218054018557
H   1.9494300780887628   1.1734764562070439   2.350147988494289
H   0.38213776833358604   1.5892081756209315   1.6952077660789397
H   1.5928624992617488   1.8661949515178418   2.3120166540913556
H   2.273549021729143   1.6324905566917423   1.5568637906872456
H   0.9239208389889461   2.3767266656259745   1.238871792104558
H   0.9505669804277171   1.4046902027453216   1.6495347157057771
H   1.7598790925340033   2.7890551023637205   1.526841746415013
H   1.391666373979295   1.4970890043964935   1.8148066454927614
H   1.4173086966801907   2.4838266711569674   1.4975448124110855
H   1.7085888818326216   2.114948868559526   2.4201375540374115

