27

H   0.8614810361059233   2.190057350633608   1.0917678103175519
H   0.6776605531489064   1.0710720978874553   0.7354566731281396
H   0.9466188917881927   1.169453431983073   1.6262778070530268
H   1.881488337890167   1.762322623552824   1.3125369251645895
H   0.9644199435673947   1.9083894596797981   0.9988994426277328
H   1.1772000738947161   2.1179728609043336   2.091409413231316
H   1.827315041222728   0.9771845008515971   0.7998121408072778
H   0.7494047850599231   1.4964125634131524   1.8125045978098395
H   0.9537851875517397   1.2834937804043856   2.7109793647167826
H   1.771097530931632   1.7696439841954483   1.588126005104582
H   2.8447856680888175   1.871731633888411   1.7272744439639398
H   1.73086337451261   0.7274204315673094   1.4075280494232758
H   0.8900217726431968   1.4184922472516355   0.5313163454483156
H   1.0363736703211819   0.8772758484820042   1.2988293343444839
H   1.6549753092957762   1.6385446921236557   1.2671794121480808
H   1.2603246731665743   0.7798218571900746   1.491714899539858
H   1.9221287505584095   1.438054158361288   1.2867954362205898
H   1.7910296313242324   1.3490322983593648   2.2235646856205005
H   0.30140613516089854   1.5284525879077104   1.4119902860821198
H   2.0861218936460046   2.277752978927328   2.388619808279292
H   2.3555028341554   1.4102224655852984   1.895864648726085
H   1.0166607937438599   2.249843355461043   1.3897098319869006
H   1.7085010763627415   1.5614898790942322   1.4061074052498923
H   1.8745326385542478   2.6351936653302315   1.6051063520710518
H   1.8031584642946077   1.6710618271181763   1.5304092035588495
H   1.2779769257308957   2.5364067447790117   1.7147339409478821
H   1.6964031596261007   2.3269857247366605   2.537721593230734

