27

H   0.661913677929693   0.27625409554730046   -0.02946968066173149
H   0.3064328325936868   0.8108836566407569   0.7860037763165103
H   1.197001333094406   0.5930384727315112   0.8317463841103618
H   0.6932428927424694   0.8843882524235251   1.0279349549039707
H   1.4266623702244836   1.4288200823966695   2.306173608086064
H   1.7355367769031511   2.3181554036416245   2.758378334235373
H   0.43293296755565397   1.3109084190557443   1.9346397236212651
H   0.819692764940472   2.225757789071211   2.0042066691560168
H   0.7337352005648993   2.3227390498701546   3.000918380096558
H   0.6848469165620268   0.7413518021058777   0.8826511965786091
H   1.6392588079097716   0.7994704101566102   0.38329255857759015
H   1.7752930824702178   -0.10585820544297211   1.3196865411707634
H   1.0989092434620873   1.417411058644481   0.28028901895771524
H   1.6617826099254   1.3264333135051765   1.2008857563527344
H   1.7293381954613254   0.8047662343527202   2.1181700196465854
H   1.1121663767074526   1.5732738314309962   1.225993226804194
H   1.8696494007214977   2.3084316294679805   1.644838661864033
H   2.2834444840669557   1.9263644928832775   2.5018065969617176
H   1.576653236075738   0.8230776619932129   0.3235557725940289
H   1.0191879662094008   1.5074127790637444   1.0402415702014185
H   2.0477476520884155   0.9133475809265537   1.1836756607707748
H   1.8334505573591273   1.4760279305369357   1.144624086408699
H   1.3041097719566435   2.176403962004813   1.6148732917974178
H   2.165791790337705   1.8423214324806205   1.9514121163305393
H   1.5624592363559717   2.3114656388707138   1.7461100419790607
H   1.5024955007259477   3.1160060706792843   1.3790494232964885
H   2.458532482211806   2.9073361606626933   1.789508369687897

