27

H   0.4469309543578347   0.7683261201330525   0.21141658861229284
H   1.005550058673826   0.8441894275678469   0.9318098116099475
H   1.6932224017862665   1.8719240862932593   1.3414555404435995
H   1.4228338640212008   1.044750673959107   0.27235165022755325
H   0.6466575820575375   1.7339879864076628   0.3347774948682728
H   1.6962160030391578   2.0774501765220736   2.303377084710391
H   1.3395580542245475   0.7879784793701902   1.2661501736653025
H   0.953562609694913   1.7664056449451029   1.269214678917763
H   1.8531976613134955   2.9962320858754334   1.7188256569263243
H   2.1084360309705015   1.3901988829431657   0.8579316341978339
H   1.5232813818552742   1.4217460448315742   1.7255370621983377
H   1.2030262830930425   0.9276915480368393   0.7147155062435815
H   1.0428794846879226   1.5994421493728528   1.4760802620112996
H   1.382944296066079   0.9755434673513235   0.5056077308525055
H   1.7953087496100493   1.766760668686428   0.9267885464936879
H   1.901870709675328   1.3475521480064165   1.8080390556425168
H   1.8527257484012578   1.7613108660850496   0.8397398117296829
H   2.480346878752643   2.210582060644725   1.4553997454786352
H   1.1268846937750705   1.5914685328822245   0.4799035131190044
H   1.7527675018051982   0.444416680459971   1.6102614922845315
H   2.2694807685088048   0.8119419354702296   2.4735391594084293
H   2.100368708970741   1.7421721523374465   0.5725330892632078
H   1.3011306476101603   1.5776738292649823   1.1822788808590223
H   2.3671291002258417   1.350880532919202   1.6688090685981944
H   1.22692764658477   1.8903149500707699   1.4225672200229846
H   2.0053171183791947   1.3666469644027714   1.7444166897278945
H   1.8190554551410516   2.047896658610192   2.3707639442865487

