27

H   0.7889916100196015   1.1856913201858648   1.6270827640061718
H   0.6076780708087696   0.36607001792792326   1.1314458225139514
H   1.5193960671809277   0.00943542238923603   1.6943644610554274
H   0.5625878095731772   0.9456835542457082   0.5902391916346166
H   1.6372489856988262   0.47972466453215235   0.7980726976915904
H   1.3754789499783464   1.0536218307439749   1.6943422988483188
H   1.2663047198222246   0.43875276219323034   1.0912203093691815
H   1.7267622180486502   0.9704129705249553   1.6995451631093028
H   1.2564971259305353   0.5466981807984285   2.515379812787227
H   0.3816669552623424   0.7552453920584539   0.948950548805211
H   0.5858409698934917   1.3106955415481825   1.644959634795498
H   1.5234371443587282   1.2577608225297756   1.5571332176959212
H   1.4326357295786765   0.8201526391957451   0.8071944069157063
H   1.7390815039807968   1.2429328006419236   1.6269872915729096
H   1.7117136031929885   0.15411434815154632   1.5240456714717616
H   0.931877686385989   1.39580348730414   1.5588922072835643
H   1.2316565111824735   1.9120101790930633   2.270319844450487
H   1.9071638837777805   1.3336030207958758   2.706610120253099
H   1.321435122075065   0.6293998681754297   0.7774648257261497
H   1.718434528243987   0.08135396039602688   1.5057884795480407
H   1.7009944213790094   0.7669543312182463   2.4373106204885113
H   2.1692411660241513   0.3732015402480562   0.33251029326171416
H   2.5981222101443358   0.8082759790745104   1.0818551924017874
H   2.40200654938631   1.1232222961854799   1.9316213732269596
H   2.16313141516677   1.204337412256012   1.0338192115034708
H   2.137693417358733   2.3460925987471133   1.8280205883157699
H   1.4997922595941637   1.5339612349611296   1.8954229606375037

