27

H   0.9050907022688701   1.1926876642037778   0.9082709810530563
H   1.2965721055087198   1.7249705241606492   0.17444012855176405
H   0.875501115086488   1.730817523542711   1.7820094876365773
H   0.9814815207410559   1.8569630349535517   1.8969124387880598
H   1.1190085884563936   0.9330671288817944   1.7030263815848548
H   1.7179688383919176   1.4543206746110415   2.420192759446167
H   1.9118202102146733   1.6304683552049224   1.784928866387424
H   1.298025327666572   2.3122372773115982   1.8506641202373262
H   2.5610851406223225   1.476804856255616   2.9706585543479913
H   0.3026752067898945   1.778036614757042   1.2590395129795913
H   1.2316628651767403   1.3703311670466356   1.1199128866807166
H   1.6119436893768428   0.8537027006177327   1.7864568764317417
H   0.7790377484320807   2.380667042986002   0.7671207509481163
H   0.5834209709571654   1.845497284454802   1.6046162566466289
H   1.5570457336324905   1.8413409646198173   1.5277483212509588
H   1.1962460989939396   1.5304672753057111   0.9121819768079229
H   2.0409872592639235   2.2831401529028423   1.1760909818886789
H   2.3664860524377174   1.7764830072464393   2.0706688555561232
H   1.146568712264879   1.5891846682468511   1.8261160772626368
H   1.3667075487115963   2.321753981960715   1.2055076969471117
H   2.143028345207577   1.649719489757667   1.4912119235818768
H   0.4366629451378241   1.518938297056428   1.1402679898368238
H   1.7432880459044893   1.4252792496949203   1.2512512230243396
H   2.740811269765393   1.8155104088337162   0.7039130691153405
H   1.4746387722430199   2.3539003712044586   1.3644454043967584
H   2.1315277124029235   1.9313639125986155   2.2040122636891075
H   2.7145807811168514   2.552946802144652   1.4060571481455246

