27

H   0.5145950644707383   0.6523514629778755   0.7372947542514229
H   0.5906400275071169   1.4087825116412782   1.387677483978799
H   0.6390972479382038   0.3494199290218857   1.6011847945226105
H   0.0007174811309251482   1.7018568823559024   1.3070070087334857
H   1.5462415775432192   1.6935734185685958   2.2723383790616363
H   0.40068336665651594   2.2231676307130908   2.1139393240217537
H   0.4838676071564683   2.191315539075413   3.0745664484337527
H   0.6845878342753234   2.302876966263885   2.1664980224217314
H   0.6599107155872896   3.074145150667758   2.722758896388812
H   0.39106246313415066   0.7437973095397622   1.6520906766400874
H   0.8372270046157215   0.2658864915096465   0.9617221490497531
H   1.5230877844485462   0.7667253194669412   1.5544326508418276
H   0.7771288256030273   1.270186507802033   0.8032824734245472
H   1.8426861946360327   1.424168852483551   1.0873160606474856
H   1.7579893135142233   1.5676450871300156   2.38473144688454
H   0.7105331764217582   1.9094897317015154   1.9791114468587208
H   1.7003482145864908   2.375907125326233   1.572841099142812
H   0.4955880574072795   1.6082355523590015   3.508568985009464
H   0.9330932691059529   1.4204942252759187   0.17870501378270548
H   1.0681106932338884   2.428575706923032   0.608383339237744
H   0.7594593004344068   1.443880905812759   1.1239385832472946
H   0.9289506683600305   1.7763220767134618   1.7289544490688398
H   1.6841178922563131   2.3671721468548066   1.4881143608884633
H   1.7604704464642944   1.292957608419493   1.3582243213262608
H   1.1904596237817304   2.830088259454695   2.4026900895412107
H   0.9450488265394437   2.9693186868669743   1.4015133325357174
H   1.5429612263952464   2.1107198275213177   1.8815841958420032

