27

H   0.1811105990525223   -0.27929019586571296   0.2488104521559557
H   1.0137447695782638   -0.2185193478949438   0.8035671116879834
H   1.8717520447518863   -0.2509372295950152   1.3145242343272612
H   0.26937427186733504   0.7258964981325253   0.3145940801279795
H   0.9696826719015744   0.7220757305175521   1.0803482227692618
H   1.5471335003231723   0.5406184930833792   1.8167852082949485
H   0.434712682080054   1.2009630383832137   1.1508225189400716
H   0.9168852566911689   1.2300542959666056   1.9855090518713947
H   1.760846497305874   1.37584360515684   2.4458166686969367
H   0.6371250264567332   0.7182131917642001   0.26499457579550334
H   1.4890676743288103   0.6606580754668664   0.6929847797057334
H   2.1258820673688   0.805254627286416   1.4249099220312065
H   0.8055772799951515   1.5884183956945388   0.7523290124230556
H   1.659548863344688   1.377391929959235   1.3490320520734922
H   2.050237854882856   1.3521955545478916   2.241706270596198
H   0.6470900298557466   2.069538262508731   1.6131470662817444
H   1.539849264854034   2.039179130103797   2.119835875248754
H   2.2224846957183675   2.164241209981655   2.856544884266753
H   1.480155831634636   1.4427755641022422   -0.15262323248227452
H   2.217156627287988   1.313779106347222   0.5089757061872815
H   2.9806059983290933   1.3182873582129864   1.2321445811548835
H   1.4954195972065156   2.270675906004683   0.5020445456428523
H   2.212735139957015   2.1567854607110304   1.1473479866187477
H   2.7266332778933116   2.0339927819770196   2.0090868756389497
H   1.3402407340956712   2.8279026496317674   1.343334651932913
H   2.1338575437550182   2.7698447407465805   1.928152698637635
H   2.9117725575104303   2.8305257839334663   2.6029940451701195

