27

H   0.09574114842888934   0.197266259617332   1.0483127601768099
H   0.9503508005586111   0.2708765871528578   1.6211575228324209
H   1.6204871760142634   0.031325370166308625   2.2199041256751535
H   0.3759882348127722   1.4254828765704552   0.7400229235735096
H   1.271459765857747   0.9551730776434607   0.8615792280224104
H   1.5426244024979445   1.0251715129430543   1.7806194209458428
H   0.3410046496509197   0.968473989254596   1.6214309134807645
H   1.3631208746608712   1.3017094048604712   1.8966500405966586
H   2.238775226412914   1.7111113495137318   1.8538325916950524
H   0.43026425884245084   0.7339918597682132   0.1867973930304332
H   1.2612308141153445   0.7429816457645753   0.8640419018862034
H   1.179511843978377   1.0628643729845582   1.8404218093694635
H   1.1774295943668838   0.767625604271217   0.8479631597049709
H   1.8045398044654368   1.266445066105409   1.564435891733052
H   1.713023448419936   1.7103806478857901   2.464816982980304
H   0.8046389545576712   1.6571996064189058   0.816122376231258
H   1.2829269505900052   2.267709527170011   1.3081847262830493
H   2.0425110563616116   2.638941883201528   2.218375917743361
H   1.0904482255498247   0.8799444523564321   0.9304600247698019
H   1.8310152700573232   1.2353423026952168   1.5211046353537683
H   2.3571331428621285   0.6025617496227618   2.144548672711285
H   1.508738703927102   1.9749434375180945   0.8903765369186402
H   2.630540547489551   1.8998500090865218   1.4155843038601408
H   2.680451940212277   1.6850269415743262   2.449265636905185
H   1.074417336794907   1.5818057715435259   1.873661814625485
H   1.9022693276325606   2.2180570360923424   2.089207215182788
H   1.8624540508280438   1.4878884328164381   2.781112754453751

