27

H   1.2315350115727624   1.2409938407891317   0.9777269420346594
H   1.3417995933395455   2.3614713683628206   0.14795703900085777
H   1.0870121940973412   1.8166033682659404   1.7618266149238044
H   1.0920008529445135   2.107305181966619   1.5689993985366981
H   1.1976367639390861   1.080469026724946   1.8663718366180813
H   1.2542147401008878   1.8948086099689798   2.654291233353434
H   2.0225770944376604   1.6017063688663822   1.8528446478470375
H   1.5320215295758113   2.4327937085334055   1.5471466008634276
H   2.563918190964146   1.4854512937603812   2.965143943935263
H   0.28438888188241207   1.7646219051927705   1.240313894808551
H   1.2226745058126114   1.4800347648520076   1.1150705675919035
H   1.6393137655303347   1.080581252949402   1.9434784764143342
H   0.9626739908919081   2.1099187617734505   0.6642918433415314
H   0.41449958066457265   1.8577526646713278   1.6643555320019454
H   1.416368909825577   1.888360528175466   1.4755711890859173
H   1.3724887817987381   1.3367825714346202   1.0120905240571783
H   2.1155538332598884   1.982459759189172   0.9127099794557851
H   2.3677490956960074   1.683517104456497   2.0682296041888786
H   1.0898350511409451   1.8008500695459866   1.890857803366251
H   1.462662963483193   2.383788833038558   1.1044607344689907
H   2.0373144916477335   2.0009770094068178   1.8533409857430854
H   0.4250964023122067   1.3753007376274977   1.102662577555995
H   1.7789010650607846   1.380754835687091   1.0996385042670511
H   2.4698031189303156   2.1759549135550538   0.9534514892100898
H   1.615699482270237   2.552952891661525   1.4839053490164626
H   2.315573122287135   1.9027236426086762   1.8771721393569822
H   2.806234922863823   2.714987330028854   1.7047079902344573

