27

H   0.7128711615603638   2.3510353208986117   2.120865307600761
H   0.2921476320308516   1.3234422207107372   1.975862292612823
H   0.956893787317933   1.072211901641168   1.277278875978463
H   1.127998186009066   2.0648027270004605   1.0993279741605793
H   1.0497107108538963   1.0655256327967122   1.259406073499208
H   0.12110098988152519   1.573008755442222   1.275115775885862
H   1.5753344321048481   1.3175226624513232   1.765308616280537
H   0.8802905894953522   2.0430072087398257   1.96838156919251
H   0.3419288349653996   1.094451678620807   2.4124461219368314
H   2.1497491617725593   2.359076821036606   2.2721455641758346
H   2.591983770038618   1.4748104069987023   2.3981546594091876
H   2.0668049901798393   1.4844608419434038   1.4911867631496805
H   0.837703449018411   1.4807896843137427   1.8617874983743101
H   1.760377300742879   1.0639243000199616   1.8730994304793054
H   1.0389761238815507   2.1506547995317122   0.8954681049173018
H   1.1449157937230774   1.8255740605010577   0.9158324752736459
H   1.8092406113859565   2.0185546158667234   1.5999819918530052
H   1.1246994400116466   1.4173996355540082   1.783612483150819
H   1.3571767213961161   3.135669638873415   1.8934555742062462
H   2.102956679285581   2.3131569840000012   1.9142898339024936
H   1.2103890085458482   1.965524076427085   1.4311824461151241
H   0.630113698237778   2.4951053358248516   1.8032102035130557
H   1.7323827189545675   1.9408525845270561   0.9749491376348485
H   1.2745303418629075   2.995827908289789   1.2599581045001875
H   1.8463876265562578   2.2169744054680502   1.5303400323616425
H   1.5437308224276605   3.181949722375885   1.7580130499209543
H   0.822229441343295   2.3255676351977588   2.2627768105095507

