27

H   1.2770393863673053   0.9269708991931025   1.3365472842071668
H   0.6457916093524214   0.2329825350321383   1.4212340729461599
H   1.0325839737061375   0.5284658409402386   2.3404094265466604
H   1.2537389653085431   -0.018669505475955337   1.1818539871107463
H   1.649853801387002   0.4111662385152609   2.0923916619080796
H   1.5067742588786084   0.9668752263267936   1.2898872940142423
H   0.5776036108248452   1.5228976890898442   1.0710770591612393
H   1.2721516630249863   0.973947812902518   1.3818867913362525
H   1.5565482108784354   1.5052205597008756   2.309415158767793
H   0.41934227008548475   0.45666062824402537   1.007826670705523
H   0.6276353337824652   1.264171475453671   1.653240614956608
H   2.768044696077768   -0.32533276452622734   1.0137067715024335
H   0.6755121731454876   1.4165326607814144   0.8094156235464806
H   2.011163407456822   0.9430665380790504   1.380936550513401
H   1.8049668051202432   -0.009763129141886574   1.0829449073053439
H   0.9816425997629517   0.9196085868029408   1.7159989039452341
H   1.5074234095082475   1.5995359760524528   2.066386735244662
H   2.0394073954107843   0.6526286269633523   1.9707822885882338
H   1.2494762802673205   0.666659347935356   0.3712378888203136
H   1.7209591250064786   0.45451630946725435   1.4747585553323577
H   -0.15317311688544535   0.4761637039499653   2.3785030000634304
H   1.2263193710586995   0.9553785259033359   1.4022501829198062
H   2.677297651342176   0.3705151551031094   0.9495158100815603
H   2.2021573082836516   0.6694679021776628   1.8036558648514591
H   1.4789091961272183   1.6495097396353031   0.718998561847021
H   2.2095241374473673   1.3445408432368986   1.4784897196581064
H   1.3136302183587052   1.0264750980210784   1.354386589701456

