27

H   0.11110274993299016   -0.12024792620532528   0.4568932763534397
H   0.6747385597790175   0.13399723583191786   1.3302162963722057
H   1.560192191963188   0.07351147876606393   0.895402728320409
H   0.07669171643816548   0.8559853213392655   0.42104868089644826
H   0.7968363949568438   1.0927289566489382   1.0643736065743212
H   1.5157559615496936   0.726858777715771   1.7586204527363547
H   0.757130090581002   1.399559266444712   1.0413724868595395
H   0.8973714379338744   1.5266716008219114   2.0186762878885407
H   1.548743159000342   1.1452532244633946   2.6354489071279783
H   0.7021831883161342   0.6385463572181646   0.3386458083318499
H   1.5174501033629308   0.465687970190311   0.8929324312259519
H   2.331289923479843   0.4654886683715677   1.4156215556486618
H   0.7524754509855958   1.362334787320702   1.032176851831984
H   1.7560201557785533   1.4026071051806215   0.6649986354190416
H   2.201051420468329   1.4587824363731188   1.5108259373172115
H   0.6512450792631489   1.9143969818679647   1.8696174512516908
H   1.6660206124860262   1.892123031957489   1.4995553790990606
H   2.0827226721936682   1.9262713143699834   2.4041372317332583
H   1.228802679183794   1.359754528255451   -0.17244752676826777
H   1.9926379739285671   1.2121590519194403   0.4283813966184526
H   2.8543580930505827   1.2860215825414925   1.0288816443317712
H   1.4379832036907358   1.9499358393337844   0.6380986772527417
H   2.4575569066564227   2.093722609398503   0.7996382276849225
H   2.894310574423902   2.096850784658184   1.774380923551201
H   1.2896305695462393   2.488796822431875   1.4452537114114594
H   2.2603677984757047   2.6777520295960175   1.5827847945028444
H   2.525373036589664   2.815134894056802   2.5745766033581803

