27

H   1.2133697596860202   1.0646629525263127   1.8567677540153653
H   0.5016151248365104   0.7571356861119473   0.9974954415123862
H   0.5276368522940447   0.38503520433912863   1.9225744351183913
H   1.2334330582049795   0.07453463830434422   0.2789732602825018
H   1.7476788698091839   0.2932933503262508   1.250557289430386
H   1.2505197954570686   0.9474709519865491   1.9314609242083054
H   1.085039129577057   1.022926670086022   0.8259650937585725
H   1.5559587545290001   1.1834957797607002   1.6493504781583646
H   1.6354140976976106   1.2178910644623493   2.7656703025506784
H   0.8661368728531182   0.5541883235022846   1.0121020313197382
H   0.644741256068805   0.9529995477134475   2.0755992924208373
H   2.067443320540576   1.5476428220804053   1.2018953532928045
H   1.4218786552880982   1.1284114236738336   0.5082390003416948
H   1.5096893321333331   1.0548990204141357   1.6345735718550944
H   2.0874128736567372   0.5157314857988711   1.0338699524777601
H   1.39732801164744   1.3798677023848007   1.6982112610107996
H   1.551809960493967   1.1904823506481108   2.704255357801676
H   2.3067545227429673   1.3852466468306506   2.091988802316023
H   1.2579899427164243   1.2585818218354474   0.4904618606871793
H   1.4715410275932486   1.1161048870927421   1.5704356654634635
H   0.5070302720881363   -0.7685952620410742   2.8582149672657478
H   2.110442690506073   0.5085090686264417   0.9688607438751734
H   2.1652204533430646   1.4865995398727858   0.9633650942738705
H   2.349606020644163   1.0228843622717372   1.8277484516912714
H   2.0594453686012724   1.5214757148975402   0.953179193852968
H   2.4712829336904774   1.4735226141664766   1.8823091580193474
H   1.341992082347722   1.4027832243833034   1.8253208188801708

