27

H   0.8955177264431026   2.5881857907542174   1.379312655119421
H   1.7083336240657645   1.9372180544316095   2.9703221357491727
H   0.9344414268456269   1.8197066197612413   0.766810751226777
H   1.0789618552734308   1.67269080257614   1.2678307101496455
H   1.07157410481683   1.466309382835785   2.278019889664041
H   0.6879619021929534   0.8617159555659335   0.8952599840811116
H   2.1282223898473562   1.330439965928679   1.8047038400950117
H   1.5849326439128195   2.432284908568435   2.122688124503746
H   0.9527194731915868   1.3936821018219638   1.6891182133113216
H   2.9272215293012223   2.6864592381766803   1.591630032568592
H   2.741395274917902   1.8589264740350129   2.076322895190632
H   2.253898583092437   1.5769896766124447   1.0014409436665235
H   2.0744402580785324   1.4398255879541426   1.3972820801108392
H   1.7235400228514268   2.0748003061646423   2.0703849185354324
H   1.5553098186927787   2.290847774621393   1.1161002075195603
H   1.169344637513581   1.7261524718131362   1.357669175497641
H   2.0104081801022393   2.4069920931360422   1.188844859670282
H   1.948703914765247   1.8504311353228866   1.9101629780077667
H   1.8683105997158538   3.3793503514689913   1.2170263881917893
H   2.17727065316456   2.648836554460699   1.8895821704755973
H   1.6404923564969451   2.486478876516853   1.0039607907354624
H   0.7541922035002169   2.3722623032176107   1.9433643469963624
H   1.5648103042636254   2.447235690611674   1.1170224908678144
H   1.7035206060029486   3.196498424437376   1.846073714872541
H   2.1732270785320456   2.5231831999278582   1.7184450553459176
H   1.491132207342877   3.2903901495043706   1.6206350579862872
H   1.048046273369198   2.4258583491783097   1.9974797066739463

