27

H   1.4499044235954308   1.1391109252050489   1.387018722588765
H   1.322593017474169   1.6961724210568974   2.4072898086879806
H   1.2013149824261646   2.4250359317870327   1.761206917083499
H   1.2330817761565198   0.3285064920438452   2.1887609177791205
H   1.874267851218461   0.7862017069406615   1.2514470862328941
H   0.9057332187233866   1.189998184270247   1.8909109896023675
H   1.458527016584472   1.8109480708306231   0.6880134557518721
H   1.1435589128302464   1.329879125650825   1.5529539964179437
H   2.214196320466112   1.3411693620652185   1.24997433061723
H   0.8777323191436889   1.145458641104852   0.6010279939439117
H   1.2520897031714124   2.145231746634619   1.3303095704087586
H   1.849566017913725   1.3446396296024015   1.4663913756032152
H   0.6505563582858612   1.0602381349948342   1.6053653249596174
H   1.065342024135323   1.4599184765453406   0.6342917982385735
H   1.2817755324321731   0.6077075767611607   1.0023240103744668
H   1.5313645899166608   0.5865631060673472   1.4665179000662205
H   1.970158647060053   1.433383633435558   1.2283596341918188
H   1.5202131314057508   1.1967527010899663   2.4079113956411957
H   1.7365178743165597   2.074157206009495   1.5789370727649654
H   1.0575370626429226   1.1521515363382269   1.4807977411338318
H   0.763324623355194   1.6307129283966557   2.2560176735878756
H   1.0601811890319088   1.7692583699792361   2.2286304533709047
H   1.7861629106978096   1.7906016257160355   1.285246644424844
H   1.9182857169027483   1.1635913466812293   2.0213424209148574
H   1.9155713572989135   1.1598784711300512   2.1496693919110976
H   1.91210793177765   0.5582061817820854   0.9290666364754133
H   1.1852264997367044   1.384808673560685   1.4544556878167592

