27

H   1.003754640136422   0.8367812109243196   1.4069967663717966
H   0.20468114319012345   1.4145332000446273   1.594874686428959
H   0.7879236794742923   1.1537642455270367   2.3929814563194647
H   0.86726370816659   0.008046409195600457   1.9416185081373007
H   1.8494090953660263   0.4220615152363065   1.9871698295863456
H   1.117200303110887   0.8469168264822746   1.4449830343335353
H   0.7132862679732581   1.9277946116625353   1.4474181550421727
H   0.9502703087658204   0.609798666517709   1.436037267801557
H   1.8475944896661476   1.7269853355843403   1.8644307708473515
H   0.07743660173260847   0.9407524403089221   0.8539322676537471
H   1.0612501768440614   1.4459934988821275   1.0387818798006572
H   2.656374882257642   -0.03577295783207072   1.557126258473575
H   1.0686675785316326   0.7692804938576762   0.8992837699878163
H   2.235931545320772   0.9981500416387139   1.185892764517566
H   1.8346315444251626   0.10609557261081255   1.0840100779069008
H   1.4916416885646653   1.0533477830043863   1.8063453898618107
H   2.0930163313457646   1.8026943991951847   1.7216791391448498
H   2.375723673376545   0.8827209054270481   1.4481228167703175
H   1.6015351976354424   1.2743762749462009   0.8151175026372532
H   1.0996135991631488   0.7151457424586882   1.6477621794122872
H   0.1943658291970053   1.3480919747392457   1.5564437118673433
H   1.5954271157232789   0.6222750045577883   1.651418242840909
H   2.1129156271190808   0.013590851372138491   1.0479545427486918
H   2.4996352781262927   0.8433973987667964   1.292390764589374
H   2.201910615061007   1.708424689539596   1.614779709791496
H   1.95828243506481   0.49093670012898105   1.873977230446648
H   1.3360718969650967   1.037479588803693   1.4013161252106494

