27

H   0.7407661609507317   1.723449849545653   0.8771863824384181
H   0.9691430567861355   0.9044641039961893   1.4577276710567197
H   0.450115206158677   1.6069254766726302   1.965512391070039
H   1.3241966685710624   1.181705583509416   0.25255249296662907
H   0.6357560301147155   1.7706335954960413   0.8410059528522638
H   1.9675227710480079   1.6993054062208868   2.249019205922118
H   1.107760965518391   0.9925368608726434   1.428194263306355
H   0.6109151868923629   1.8723374766971874   1.8216924785199842
H   0.4690968216679753   2.4799380070553156   2.59948743891308
H   1.743356153220657   1.23266123232056   0.7908108523594691
H   1.9642971502599762   1.3777283800544657   2.221926605137463
H   1.5918785115021379   0.5727250921339126   1.6963070710436026
H   0.8931425265692887   1.048327958807395   1.1256631873123415
H   1.4816251280328412   1.382169104795526   0.517759133145691
H   2.199229791018121   1.201968719484324   1.2619328536820589
H   2.0969177280022544   0.99382735759879   1.6516476009481469
H   1.5888035030000809   2.0928057596098144   1.4351401734816713
H   2.380619908462677   1.9397694306641649   1.862172863912371
H   1.5058916921586964   2.468215958177066   0.779436784904954
H   1.5530067009703696   0.4461697063733101   2.09018227833763
H   1.8497890332704126   1.4810465202335676   2.055765068138812
H   2.0683243542187815   1.4136171541043947   1.0569235418201501
H   1.1608715372948029   1.2672720492966791   1.460330364245779
H   2.514568268729081   2.344462261439621   1.7288020995896969
H   1.3608282773853229   1.9215918477127472   1.5855645378195715
H   1.5015979539279654   1.3971603860195398   2.378213796267189
H   1.6907446677753466   2.3600303289179148   2.4508304631944418

