27

H   1.4742285674762594   0.9711495559671268   1.6364317612804773
H   1.8040662263737792   1.7525069410925214   0.9343523267345611
H   1.9575306413753888   1.900093012732044   2.0227938761903252
H   1.4314928334009525   2.2414980987465234   1.8959557937995397
H   1.4930418497627884   2.6764552416930987   1.0263028472932647
H   2.4551866376723037   2.4662701511480742   1.2117076660381736
H   2.279136905959747   1.6815689832230682   1.8095881893614887
H   2.5462216880200184   2.517366719921483   1.0211330112747778
H   2.036101129941882   1.6422184838168468   0.8158731841790846
H   1.879584280985619   2.005336586738352   1.429561835594617
H   1.0758823617204312   2.3494646179833962   0.9943689923738548
H   0.8566483211608801   1.5294615634416129   1.6261763089052395
H   0.9109114348528949   1.9099561373430107   1.077531217922465
H   0.8550062817423975   2.227534297675302   2.050569981831411
H   0.2842625408547346   0.7577757849799251   0.9502380730603329
H   1.385974566848222   1.5483119474699931   2.1047053461824725
H   2.434542693414579   1.6302181304261725   1.7594292255895276
H   0.613860823085072   0.5407561095471931   1.8254931742227387
H   1.007166498497802   2.26372977730344   2.3953688428272333
H   0.9659699468715556   1.5887408800815648   1.6034742059580083
H   1.4888894609097696   2.2371596401768397   1.133618879800479
H   0.8118266920919321   1.3295267494415417   1.842979739898573
H   1.9003015445490494   1.7649418677833808   1.330670395930788
H   0.38941241142084654   1.8227518241017013   0.9522186386219468
H   1.1654978107662743   2.1364703293902796   1.3449278852944515
H   1.9521991925715185   0.7777998734127204   1.3505687986750776
H   1.0922232327758696   1.413580952671768   0.5521098969504166

