27

H   0.9253863171244843   1.8276317058049079   2.1459705706516514
H   0.20569649193118955   1.3406473354855544   1.6611504752045212
H   1.1091510274372947   0.8263106562198438   1.722844149345728
H   1.8026673319856419   1.989702059902039   1.2457449278165906
H   0.8534614484539857   1.6427155904226867   1.0491520415943707
H   0.926345622854467   1.8697092149040546   1.9642273249593873
H   2.313987223182289   0.9300131104427579   1.5306638539223805
H   1.3725874555895188   1.1529002190848767   1.8140152966844973
H   0.37239253694024665   1.3307798688970038   2.899208734556396
H   2.071605913651758   1.9256648458916903   2.0924622878540675
H   2.687062491144999   1.6160695121158655   1.3325037564264146
H   2.16361300128754   0.8864103621644221   1.8843616023171457
H   0.5906952508845343   1.2728918592434781   0.9502332617014473
H   1.2663382924860114   0.8530245419816679   1.492991684164951
H   1.654217205500364   1.8514719336661996   1.315699728380406
H   1.6286821542084207   1.3646276615683823   0.8905312834277205
H   1.7713318192365375   2.049550843121831   1.4515954846166663
H   0.9118127831313025   1.4688579110179139   1.8304089036830433
H   1.2278976594558904   2.6452271961198295   2.591808360263191
H   2.0354693426793435   2.716528319018346   1.7967733727398945
H   1.5919642338006945   1.7851427499324437   1.4804104341506306
H   0.8383449297320598   2.1404345022251903   1.633223329787979
H   1.8622903468965208   1.8340252250887727   1.369663255198221
H   1.637535697606639   2.744921797834358   1.6887924811767951
H   1.807544566443464   1.9895392771418445   1.7883857548548978
H   1.094923127485447   2.817058165266739   1.5179182197394236
H   1.2218329723615196   2.251616230044141   2.4858368539243254

