27

H   0.6948136602145609   1.3840697382301312   0.6919464117662892
H   1.4523988157624619   0.8886342322888469   1.0081212371404316
H   1.5460528367314328   1.3550452664430517   2.0797350198102933
H   1.7742111340540698   1.570963914835976   1.1231467551738228
H   0.6324151617099514   1.493609327094703   0.772693901133229
H   1.0376120910868842   2.0197252056024557   1.5162539117734533
H   1.296434206029964   0.696378180425846   0.9596146133334739
H   0.988228017390279   1.3511866596315252   1.735106753458975
H   0.9016438848810842   2.123287771841917   2.626972486848158
H   1.5076614465067077   1.5087256592550953   1.29007518613541
H   2.0660110916861796   1.9782422336395165   1.9893581552619826
H   2.0207765722353273   0.47386072493802667   1.283530044295923
H   0.9930558617701323   1.4578524051009778   0.4393423654470721
H   0.9090544469518351   0.5822594898012237   1.1163161730329185
H   2.0236703214597562   1.499082907563454   1.1377863299649125
H   1.9801659574408788   0.6563033357901986   1.6665525283906963
H   1.7852206152333385   1.4463592285054767   1.1386690025195458
H   2.5890237923665866   1.5020864850869047   1.9982226248576735
H   0.619305609424151   1.834014235617233   1.7491489666948183
H   0.9539490144860021   1.6626279596320606   2.6680395847124303
H   2.3047945394254703   1.396738307100665   1.3208286951079056
H   1.216183839918935   2.393534289775149   1.1459675839402723
H   1.2251565677179208   1.494821929296925   1.5558214052114343
H   2.2687992032292077   2.557118149180049   1.342563415345708
H   1.5784615047281676   1.5231465019114814   1.470961419522831
H   1.2631748586112417   2.4638644688393034   1.8239291082813052
H   2.0934510744273225   2.1265281476234343   2.685020231298543

