27

H   1.3729177672100286   1.315264824177671   0.8482807020812524
H   2.2677376683965917   2.0771122054324964   1.1250331167803955
H   1.3173689177656305   2.0087621004327185   1.5698174397393352
H   1.4133685687810478   2.2511788526704235   1.1447776077706868
H   1.3298697679037261   1.3534769217683127   1.5045147615379046
H   2.1733755799717103   1.5352200442698374   0.9458024151384236
H   1.0899471212826424   1.435755313297662   1.8155498170709192
H   1.7823543378357685   2.044891596943562   2.005835075058849
H   2.6314419285183996   1.5323731385919692   1.975891863314241
H   1.2378048376538158   2.034858244992972   1.8315134219235794
H   1.4493372143292103   1.5170273137570875   0.9894964921209497
H   1.0542975115904736   0.977954349968917   2.057727064078217
H   0.08389286107286686   2.5343485002599726   -0.10354683845733767
H   0.4081347383774881   1.4723959222516165   1.2549524859502141
H   1.1664075807683165   0.7635947737276294   1.0242650680291985
H   1.3413133124196597   1.2253891968644879   0.7255475826737349
H   2.451169190041959   1.4908898768936292   1.0129581878821714
H   2.051399108532095   0.7267190083219407   1.6514883432453147
H   2.1111947339251462   1.3236943983512504   2.0913735674657246
H   1.3419526061985951   1.973145602195909   1.8544247715721331
H   2.323583344859472   2.1461569057000642   1.761859482916899
H   1.169842966998486   1.4657808080729053   1.7821379530638728
H   1.7601699762295282   1.5391229675362192   0.6156613715068384
H   2.526565452995274   2.4988474732894135   0.7684382268492448
H   1.6605221137626645   2.0967133876464747   1.2214150857395145
H   1.5104224354200586   1.0543557449014826   1.4460361837955824
H   2.5474938160381493   1.5408966497876986   1.0048364497920077

