27

H   1.1819087987968167   0.6680992097409156   1.1928253897232322
H   0.3620644192380842   1.220839396210911   1.9981239081582753
H   1.3095435790332892   1.5273064831464007   1.908258307044037
H   0.8474719109440045   0.007915584590947003   2.112513939150522
H   1.8937632857239304   0.16000814749551975   1.5564468607136446
H   1.3387674442720323   0.8144365359550301   1.1684839545445318
H   0.9803179889150464   1.713851361531868   1.2428915801499787
H   1.3541083873433364   1.0490712305647754   1.774266741558326
H   2.1077651866129665   1.582003206312046   1.3751434887390923
H   0.5071595008061305   1.4485640715237063   1.1606026450894906
H   1.2052947104565006   1.7021981247128812   1.8200456770696944
H   2.9566027587145554   0.08020699853316327   2.103338817092448
H   0.632270029581874   0.32815813323733534   1.1861770454591876
H   1.5054569078005   0.9995801133479844   1.082863054703702
H   2.215343284144592   0.3311049005900624   1.1381201285943272
H   1.4431094666633617   0.9376951217917239   1.5646906109445864
H   2.1691545348472796   1.7131966326730577   1.3397385250692588
H   2.7108324101485115   0.9377703419367304   1.7626515883772418
H   1.4035382987085232   1.2646768308168452   0.4316115654163967
H   0.8841642344217883   0.9376933632639325   1.2233589151743283
H   0.2571122109030497   1.5654207331327756   1.6670816071932701
H   1.2859212248711893   0.871526923154685   1.6571573944161582
H   2.3450380696932527   0.6344165547483162   0.46258434036804813
H   2.450721809876005   1.2677585084998277   1.3552537848278152
H   1.8642828305061796   1.8850119616779848   1.5499549874462377
H   1.7625143230873763   0.33014379410697886   1.1343906670101054
H   1.2356687420266768   1.148225526120538   1.3667007770267896

