27

H   1.293885868393211   2.17076342835524   2.0168420756280856
H   1.8032696150880305   1.427080408242297   1.3847885449037862
H   2.3943674124772336   2.069439210822621   1.8038591655851692
H   3.5010691559150606   1.9379053709464364   1.8948950118654648
H   2.1989728920152283   2.4503356455853935   1.74695910647853
H   1.3186203800733056   2.0375126874333302   1.8531978858408373
H   2.454152243985681   2.097594150322595   2.105014730070362
H   2.6503419639540753   1.0788962257124495   1.7485116743811582
H   1.7623263502187154   1.2872962416200546   2.2796538529135426
H   2.362529062828559   2.1630491079457634   1.9758726587106896
H   2.844136703445638   1.3947478943244682   1.6885432922347423
H   2.1197823448944773   1.499986413690658   1.1117630402745118
H   2.806216648239996   1.5726295143029392   1.3437646013391873
H   0.8538027896045136   1.8328114576570307   1.3210988986764751
H   1.8764158143182992   2.7048478246120196   1.3288063191775459
H   1.6521645949147807   2.216753830452224   2.6167833538382097
H   1.8362406058253404   1.6822913244085822   1.8543540540017154
H   0.6426174251501349   2.418531416665718   2.4300819422947955
H   1.9961601477868234   2.870655849189929   1.306640024287236
H   2.2416536131668843   2.1668785381619657   2.0487657786758615
H   1.3451243496352117   1.8157826649477211   1.914610644915019
H   2.515759737845874   2.309495454410436   2.002676225119927
H   1.2658602521559927   2.088341482899928   2.2695033852068605
H   1.732861869342249   2.9379944946495566   2.244701404564309
H   2.2331960441570518   1.3760324177223635   1.6129937472893714
H   2.1620559238592554   1.4622709834254657   2.8060051927016842
H   1.4201615054243608   2.0735904717774774   2.98137154681066

