27

H   -0.06375761053950277   0.644315185824821   0.8979650400111295
H   0.739337419826942   0.26191751515204714   0.5134545455083769
H   1.034577702959614   0.8722726814400924   1.241258206164065
H   0.7241371998051718   1.25846710281697   1.1125279945999516
H   1.2246871291463441   0.40845758010814426   1.3875296469031673
H   1.4798977347621916   0.8091977275088086   2.2518246030057427
H   1.6713005781193533   1.606422494305159   1.0709633862348904
H   1.3133633651170111   1.1087273462461995   2.050545687401814
H   2.0001959578013753   1.4735405536559114   2.695784503996033
H   0.6164368761190997   1.3641085582995198   0.20413420137136037
H   1.6361823551083454   0.8452780751903782   0.5876258824911245
H   1.8456180772680624   0.4063854460978163   1.5864362031065615
H   0.27426837615195004   2.1363646645644154   0.8648510651790429
H   0.9507388565853027   1.4141999841077895   1.1575114958224264
H   1.8015095118065696   1.6783318558912497   1.8685930475241452
H   0.9194481835595123   1.8449661993273039   1.744538036225768
H   1.8748867639344624   1.5836264568848692   1.390705254268031
H   1.5459575186749315   2.3190707634883188   2.504002121320116
H   1.4007578976567425   1.0062988561132789   0.6704850835044555
H   1.786815680639178   1.9201175174024414   0.5435629429284607
H   2.1256785128597513   1.3466354403523328   1.3400721516275338
H   1.220742158140822   2.020614669872879   0.6658864527120041
H   1.3220604493227774   2.4027781727105255   1.7294900179768813
H   2.5410278354936975   2.2477627116844645   2.075508578471994
H   1.5836564412745697   2.5323138967897285   1.5085676936293202
H   2.5250667080147498   2.276048129641308   1.6776176954955362
H   2.0747087222175886   3.127260326101351   2.043754217307854

