27

H   0.9484298265211765   1.3135360825208418   1.427007912097079
H   0.6711854611504108   0.5910710978895531   0.8487553531286283
H   1.340701712604443   0.26389735205107157   1.625748739681645
H   0.6280062879778728   0.588092556262785   0.1457728795517042
H   1.7071707604715969   0.5033493200292709   0.9377151545956538
H   1.7182749597201536   1.3681775289613993   1.7011774693803334
H   1.390433626890402   0.688503868365412   0.8938161602923546
H   2.0627904342410566   1.2875689721149632   1.6179124545299082
H   2.1152638541011655   0.5807077778188926   2.362063895053988
H   1.0143957472856207   0.38514976754818725   0.932254685456263
H   0.6180165834760019   1.1778042314795583   1.6658345358608133
H   1.5560327059464356   1.198728086827344   1.3666774946966076
H   1.4966149394741464   1.168503955987355   0.4992803551663478
H   1.5885194835408094   1.1794762271718366   1.589681276136068
H   1.753677180367139   0.17656071220859912   1.1359312833285236
H   1.4269814219496355   1.3230484806118445   1.5366085575632253
H   1.480219419431915   1.3856836660575573   2.593577818267441
H   2.268219142761607   1.5177455104784676   2.001530243568714
H   1.3853353094076233   1.1964080781424937   0.5464891329013843
H   1.6869854643493525   0.7412605802583966   1.392607400149232
H   0.9405744249075128   0.34132851595988656   2.556415602355816
H   2.475512256448399   0.7164766366286883   0.4405434006531586
H   2.4766488520207393   1.179604377156117   1.2928533727533753
H   2.3454071235918517   0.5326580813734   1.9865341416726212
H   2.1881406487883295   0.7229962460373319   1.480841603612782
H   2.230618995159079   2.2759364173079595   2.0386030900564602
H   1.428530904680559   1.0479423474662497   1.9462887164226579

