27

H   0.3402511872662609   0.16945039233675951   0.4812116133724994
H   1.0059862165401359   0.07162644496472859   1.4307132599850396
H   1.6452952158934557   -0.06797775014402298   2.1204237864101962
H   0.103281150827214   1.1239352196908399   0.7207431836077427
H   1.095509974620589   0.9170185494351182   0.7876163164732132
H   1.441341842353908   0.837293537540345   1.7827012936180846
H   0.12260005866986047   1.673833152878499   1.584161582814846
H   1.0774436913346566   1.3196228848951086   1.6432905257945543
H   1.8056332250217924   1.7300732698244807   2.1002340828073143
H   0.8768589534042259   0.6107805005982098   -0.22302047662780586
H   1.2935961998685788   0.7136711620285254   0.7391546264359508
H   1.3964972200313104   0.8261229016104324   1.765718622032156
H   1.0939895770818815   1.0811950024812425   0.6514035214904723
H   1.8569114808240834   1.3418199736111884   1.305187150257663
H   1.509212136521015   1.7124138756068894   2.1238891080529774
H   0.6092774676859861   2.05337071075482   0.6951511198014179
H   1.5855182914796013   2.32820136900996   1.2512060995924514
H   1.715445373979879   2.6899572824373066   2.2654804855736925
H   1.449045513119647   0.9446764316708055   0.5436763358140868
H   1.7035893986832618   1.1925486073966602   1.4693888800881765
H   2.3419072674681534   0.6123799106925477   2.028936492311353
H   1.8457454213620723   1.8227344157550016   0.5366722900160621
H   2.6512697832896674   2.09901719614651   1.1375142952773742
H   2.5861629902896586   1.6830743419099836   2.1033086606304776
H   1.3548794603030498   1.8643000842210466   1.400163843502714
H   2.0932545694766675   2.1436794578293736   1.986109348597332
H   2.10356021140628   1.9627506526832275   2.997737003711371

