27

H   -0.2266350054195056   1.1802476968722366   1.1747870435884482
H   0.646989855914677   0.90782764277415   1.467781461412053
H   1.373051484631201   0.8774212664885523   2.2234080525128883
H   0.29784689859466296   0.44600329647964854   1.7082689568111018
H   0.8665497196208629   1.0447038255829528   2.4083876817601753
H   0.4084828620173685   1.4096065996341607   1.5347902863784206
H   1.1539407485366213   2.081718207093224   2.6606910092281213
H   0.8749860142955892   1.84034375127528   1.7667871909668758
H   0.04772094516668134   2.2418811140146886   2.0432956637799204
H   -0.25388105675808836   1.7311024504990593   1.9178239563517228
H   0.3898026767992699   1.8499924575013662   0.6964002944367245
H   0.6098025214191017   1.370898730010805   1.5594590896318237
H   -0.20187956233848453   1.15808248789442   0.9554081074272737
H   0.5758482648088333   1.3758860117491543   1.4864084002344637
H   0.24668422839768137   2.0836517590647006   2.117031440167701
H   0.5047001441276519   1.844689052149814   1.2042393577997985
H   1.716781637013754   2.411373582012156   1.537524160987018
H   -0.3320744766319874   1.363480821285583   1.8065042496739268
H   0.4551947147948362   1.1168778268046489   0.3163487097141065
H   1.2165076296008446   1.323295622329183   0.8087352975761506
H   0.4362615562571771   1.9622540332713954   0.8772270648983699
H   0.45270160427419026   1.5067736834371506   1.6314662963512654
H   1.2789657588354177   2.124446504180366   1.319940266471239
H   -0.09215490449480555   0.6491724183548865   1.0370794209552092
H   0.1891355389365305   2.3155922772251882   2.177857327967081
H   0.7567084068705654   2.8860905963878047   1.5545604651177953
H   0.7944441185211708   1.6298207458604632   1.7325044319888205

