27

H   0.6860439253304876   1.8727877082194342   0.6987942530910564
H   1.5769154946265944   0.8435907940746167   1.1538306317844962
H   1.665735640864312   1.2476515661293162   2.088368755490296
H   1.8751699620450022   1.76398704356612   0.9131281199719603
H   1.0177117013102257   1.400073970061018   0.5595594377385685
H   1.0165726776333133   2.0426049009866154   1.3726957744167845
H   1.0555997673591606   0.8033080654167415   0.8760642368612273
H   0.9195960423247908   1.531598197966898   1.4850316743940766
H   1.173372340265967   2.077514231462447   2.4991187566747244
H   1.559722581924086   1.535488217050513   1.341390023686133
H   2.0758106490991333   1.888080780461687   2.1479190209895918
H   1.8379302615354487   0.5022473963076632   1.5468693442469952
H   1.0066226353448464   1.493004965204502   0.4130920834592876
H   1.0387357731615445   0.5338524244481987   1.0508453960351845
H   1.9125312996272794   1.7326426061749354   0.9008744963678897
H   1.7265848433485886   0.49842031289357974   1.5125873933756635
H   1.826181361932011   1.5841326840962235   1.1779752423487242
H   2.3084466385199556   1.3736828066968336   2.0706491474412436
H   0.6415655791178194   1.5453472730912627   1.7025973473661302
H   1.0820988983015798   1.762663636678786   2.614822095676201
H   2.337070231990502   1.5749666732387726   1.3861165170607457
H   1.049406692333177   2.2680996133986686   1.1479702501527376
H   1.4579115405169014   1.2249702151344566   1.6447524223120118
H   2.147821852282193   2.6244419449078302   1.3860578950820421
H   1.6640121812374367   1.4366558458018017   1.5533919871877067
H   1.5045023289384793   2.3579833718081047   1.858770138556851
H   2.1810757330251653   2.1576707195872618   2.7701526658136033

