27

H   1.493677136726968   1.206984879478101   1.4613349754841785
H   1.3936142025802216   1.808645722223645   2.713537708755288
H   1.4536906847916453   2.223709366807489   1.664997887585775
H   1.292091699457784   0.6736714335246499   2.3027314001981254
H   2.039314156925022   1.0261904186950674   1.873037763883915
H   0.9723803223247942   1.3366745611861315   1.6193366341614877
H   1.0996791918018112   1.6993995772318067   0.6122642890049891
H   1.1245969903453108   1.2934214329183091   1.554073570662435
H   1.9179843871472517   1.5303817682346867   1.1610071926817271
H   0.7258027609942571   1.4371148184928788   0.6593483954920958
H   1.1548321872510587   2.1869374630081277   1.5428302859115564
H   1.8667439788940603   1.3195033598640227   1.4531116745383519
H   0.6244225000873656   1.3845477007348568   1.609860844479801
H   1.0783121304314855   1.1339803007607465   0.8833088509215391
H   1.3020895636773195   0.4292174592086259   1.5618877222686975
H   1.3969991037757812   0.7896485103960101   1.172982369129526
H   1.9366250412216326   1.5956428286686704   1.0849367474629856
H   1.2637456521012405   1.3325690935545695   2.344118848082057
H   1.1930992199541002   2.213681980400796   1.6413241941295929
H   1.278099443150327   1.013954511283657   1.4008158730576366
H   1.147059486949632   1.5108950667479542   2.3442943516371577
H   1.046842230997732   1.5795756762340498   2.525895112183825
H   1.8805036473870531   1.6963048766452948   1.0354204434077547
H   1.8552480175213386   1.246138894334382   1.867050070825723
H   2.427710888989739   1.2963135679607185   1.812540476177831
H   2.206585671310079   0.628898137028656   1.0021198190304759
H   1.089294724581745   0.929394183113441   1.305399877918862

