27

H   1.4166359926425491   2.1692620476423756   1.230229347402698
H   2.345512144224712   1.8797682491979046   1.1861791842664435
H   2.5741878915107774   2.46221754024398   1.9228220575914554
H   1.9551148144752455   2.9115285576932695   1.6303117060922927
H   1.347671679096462   2.7438112161120456   0.8042690719373413
H   2.199102985233291   2.2444135583204354   1.0078158020074306
H   1.1577102940687218   2.3937766894646004   2.1771663117270594
H   2.130785131705298   0.9022427102483368   1.0541440800532702
H   1.9063782896423622   1.6481609411155111   1.8414947555175252
H   2.575757487434756   2.027487467673301   1.1536144474917844
H   2.217127664859961   0.9144604252931813   1.2436147768549113
H   1.858270745788128   1.7588535853335512   2.039642886383771
H   1.7153456526087552   0.43606394329393905   1.0842212989649531
H   2.018819376073414   2.777302985958555   2.1059553585573805
H   1.2993438809279882   2.459234203216005   1.5020718077745754
H   0.8288210279291495   1.4198150421062274   2.4233278882267877
H   1.8471324108464655   1.6943926620257943   1.7426357556628669
H   2.0163757545157437   1.0303563583784374   2.6952361464910473
H   2.078633836311168   2.586029246821219   2.024535068427545
H   2.0862265477238227   1.5998472397389638   2.15355754200366
H   2.124245716811903   2.0580786924467844   1.1371653163221833
H   1.176174547358887   2.612952623032174   2.3805601761162163
H   1.477746660246714   1.9815652590203325   1.5160830908532261
H   0.5528618393392079   1.996519570294432   1.9040324423856172
H   1.7771948270644473   1.7779265838117502   2.6767633830769557
H   1.2888802875102865   0.9664729855028527   1.831338912424545
H   1.0910513979139547   1.5180803052559726   1.034089191072131

