27

H   1.309869161472041   2.560228232172381   1.7468474835106729
H   2.168937483601157   2.333164965891733   1.244370520286757
H   2.052389765560527   2.575514213809856   2.46946901913334
H   1.485994383528488   2.530158318913719   2.8019671660314818
H   1.2824121982923093   2.9703439010787447   1.1254937515047607
H   2.137883491552181   2.5787686482285603   1.4345442138524134
H   2.2483555968628273   1.9371448862728768   2.540266565628545
H   2.7080170185444383   1.5377243557392934   1.0856091035188213
H   1.3851699013264072   2.1193257054631065   1.878819506150752
H   1.9923195093107617   2.259839869864484   1.0908834145049815
H   1.1102321727800502   1.9854358048150273   1.475053538412969
H   1.0997464928724294   1.7094509508643765   2.559597251828901
H   1.885764991552657   1.5018373394836761   0.18260317245195268
H   1.876359563147065   2.5564641725272583   1.8391781979555626
H   1.4342585041943374   1.7358233943302066   1.3775969210795724
H   1.3231147043373401   1.6435826521654775   2.491138479683327
H   1.9204053684030813   1.479988341918419   1.5969917225914392
H   0.6469210079522468   1.1380668192777117   1.904833770434663
H   2.406712276729943   2.31866570252468   1.8604387685513044
H   1.9848177889935013   1.3764794621222847   1.7596812316394044
H   1.4255373221859287   2.235432475619291   1.6525910017633387
H   0.9652740438298731   2.2701398448841683   2.0184027399104676
H   1.225516819821331   1.999048352834976   1.0436285506839527
H   0.504536358235639   1.5226279695725458   1.6342597170876292
H   1.8984872629631826   1.537874633856314   1.7077934885776076
H   1.135038689817082   0.9453224731856553   1.205105816913792
H   1.117968731943904   1.9040029759029224   0.8198801237842017

