27

H   1.2782926492939177   0.7785242941604512   1.670909686158826
H   0.41934116451363435   0.9655827419520483   1.2153244236113614
H   0.3389464461863538   0.3908814213325188   2.034512803241044
H   1.559880756432881   0.04925662810406235   0.2766189916411211
H   1.825333630978253   0.1965922068162542   1.2992271420472188
H   1.2266378358590686   0.8063900904678958   1.8354061732346043
H   1.0397021766371246   0.8587935674748263   0.7220491145262463
H   1.494475318369984   1.0435617563747022   1.6229865689453684
H   1.6264769833135364   0.9881152466205073   2.787593087810979
H   0.5813101519327523   0.5149289285742471   0.9231089884117075
H   0.7360337150733478   0.9284355017507707   2.0626297664252653
H   2.2087265226547306   1.2998078259651262   1.17987704023877
H   1.4013501014069956   1.1011756426049522   0.7467688827118416
H   1.685366774424381   1.1364756185413667   1.7125400359684426
H   2.0364023082226006   0.3970045130182773   1.2121762369248046
H   1.3106185785470466   1.4521124739713218   1.6328056269493332
H   1.412181737207371   1.1549034398596156   2.657579753110584
H   2.2942662567883345   1.3622082741425856   2.21256981619935
H   1.4245255418945124   0.7823401193155054   0.4548589124753593
H   1.5742563528238727   0.6281381708331208   1.4617404363734379
H   0.6676073190685361   -0.7084064942513055   2.8516210114094913
H   1.9918473587996284   0.5057195946452605   1.2745669831846473
H   1.9884771507524932   1.4346062608583476   0.8841516102362162
H   2.293723430440521   1.2246859794923042   1.8066492972992934
H   1.9078319120623501   1.6336386848270392   0.8548303244761427
H   2.376590158547038   1.5118947208717635   1.773607733616364
H   1.2646782583913234   1.5233334301293318   1.8356745822286693

