27

H   -0.104923176579204   0.4483077229001319   1.2298467711781491
H   0.800476028059127   0.8803111350608972   1.5996766036953824
H   1.5781582328957569   0.5360035471452262   2.291475712765958
H   0.5354788061540943   1.1110262594688691   0.586596720427545
H   1.4733834455131538   0.7710280829186729   0.6222237696328842
H   1.6100491662456744   1.376445739999337   1.7619985537355167
H   0.9089036343715632   0.7755556988985233   1.4270436587278112
H   1.891644394815388   1.1696314382904407   1.400042630180148
H   2.3781986101554855   1.132540536289992   2.2471682913378506
H   0.7075296218442535   0.6647871551977051   0.39856602084937587
H   1.52750830624974   1.3838740562408167   0.6102736097578662
H   1.9230821806714482   1.305816691817449   1.6003603142075054
H   0.5370272568959624   0.9522757337197855   1.5116023948510766
H   1.452432946168997   1.2013200237701842   1.5440484936888201
H   1.9677846820560079   1.3637785443789472   2.64503204696989
H   0.7765946237388914   1.6243563100099019   0.616635230421838
H   1.469197433018182   2.1375190515114366   1.1595781505658935
H   2.1455363565274443   2.1533886698636193   1.9178998272609495
H   1.3671773462260601   0.15329920292231233   0.8635414240466479
H   2.0325256709830555   0.7286437957356565   1.5407895722984437
H   2.60917705396634   0.5517108528177403   2.397360899699305
H   1.4192984208074775   1.0759888563622328   1.0513884235010653
H   2.3541629675685303   1.455252375110747   1.028574740792761
H   2.8422112538839457   1.4010010349363764   1.9820069140321184
H   0.8749663080907639   1.6549209909216729   1.9574431153358853
H   2.1011366150278126   2.018947394508561   2.042216027314544
H   1.5141637407501394   1.5994897759175761   2.668043951793861

