27

H   1.389926370996766   1.887261002265115   1.7885746978182433
H   2.125033299181869   2.1943015614199504   1.1054080508409758
H   1.6161681667408696   2.8590590158388545   2.0884637348307327
H   1.6913148789324655   2.854177788037261   1.709470290062725
H   1.224432029186131   2.6145698575084264   0.9024092147366419
H   2.22561786750442   2.4033288173355167   0.7740491993520765
H   2.705246434938795   2.126365459767443   2.0453479616072543
H   2.9892759950149284   1.5376391542154189   1.1550864886927692
H   1.8743013880797947   1.9930301813157694   1.6052592901725222
H   2.18373518932924   2.3247947263156794   1.1531822243043426
H   1.1839221947669638   1.788162219864719   1.0697954420065705
H   1.1229754787371624   1.9599529193061178   2.044881912881461
H   2.7558011809506517   1.5859449065425224   0.43929678653634513
H   2.0798133438953488   2.180492367935676   1.4014726303907106
H   1.4000806741990688   1.5901086552351864   1.0794651460863245
H   1.2856155068945885   1.2745588382570816   2.491948473618397
H   2.016963494443247   1.2608062340292994   1.2417543970517835
H   0.4032036512143823   1.13328718388455   1.7347454913844225
H   1.894452680629482   2.820472712014746   2.1124054872148714
H   1.6229150704488304   1.729721459702651   1.9249879230278395
H   1.5624994206369018   2.429338121837819   1.1805196625835666
H   0.9551831758261163   2.527935377472256   2.3333623391475418
H   1.3358357515573374   1.5702706994394688   1.0796023635688803
H   0.6543359565220745   2.0877208949599497   1.4789071278960098
H   1.7521790982650232   1.7713881382286154   1.8135574354044586
H   1.1509532428220448   0.6728259980103596   1.7570458404315696
H   1.3367477098969514   1.5542164023632046   0.8304074083505858

