27

H   0.751423306570014   1.9008935584366624   1.4198958250699985
H   0.6324416506813689   0.9766333458302141   0.8715898327842353
H   1.2492587988756048   1.0716443914065767   1.8180264779830222
H   1.8998393998525083   1.9527366597438007   1.3534071812633566
H   1.3302422608678934   1.8956976951501172   0.6173036840164366
H   1.0487238281937088   1.9726276781402923   1.6982415023014665
H   2.463808178123386   0.8084298450257118   1.0485609696864755
H   0.8364578475722823   1.7185269098241212   1.5085398875085267
H   1.1651173830828365   1.6328342886167782   2.68257081462878
H   1.7715339325943193   1.7534676534148819   1.5831844581785466
H   2.7240918807775296   1.82634789318045   1.5019096100695124
H   2.3377288762624375   0.878278731120671   1.2854745619881534
H   0.6998954118324135   1.6289935785550316   1.0412924625543267
H   1.3287221111769236   1.1090485556319145   1.6660882467409264
H   1.707469186540586   1.8012267629564493   0.9611597199885826
H   1.317484700630778   0.8610787449261171   1.3540362557078303
H   1.8483986466838516   1.701598578911046   1.1244285061436128
H   1.953006370051459   1.2609753119834164   2.134612857643451
H   -0.16393984852289264   1.2056273752696367   1.6277519871625115
H   2.559474819490422   2.483357560106615   2.26054481459068
H   2.1899013793946187   1.6672396841455757   1.9235426651356196
H   1.0427866327366504   2.153911205479529   1.8105962187189737
H   1.9824199415333403   1.910161193674514   1.5665376004280507
H   1.554254767597403   2.8904564869472917   1.7072655148558884
H   1.9729072873805822   1.477693187960885   1.6938128167397608
H   1.3374579600507108   2.491341510302951   1.8777825496187088
H   2.020571108736838   2.3355955616170547   2.5777005396234585

