27

H   1.322886106023295   0.9977440368908194   1.657304506137934
H   0.3298568719276976   1.310881349539779   2.024951621149668
H   1.1044570134807932   2.016983115301263   1.7692997930815004
H   1.2387565583025382   0.03166677429238228   2.0121932411670747
H   2.1402981842948243   0.38418504161710026   1.705677484084239
H   1.3470547107698054   0.9919972407325998   1.6576451959859928
H   1.3066955399325693   2.2236555855289253   1.831816526993536
H   1.343147321383489   0.9552602861575542   1.6451155577631116
H   1.8116958980524027   1.6775635356424057   1.1209678403918264
H   0.600945209037155   1.564972179765723   1.1179915206371298
H   1.2761839227865888   1.2453046385853193   2.272095991837153
H   3.059554039139965   0.5798664147594881   1.2535752828050828
H   0.5573845139867366   0.4404030360454764   1.467009528273426
H   1.362382820463837   0.8596150500028793   0.9620289388003991
H   2.0076152991316962   0.23759085567465602   1.2513594137683286
H   1.6336837654886667   0.9816971750635132   1.0851257405265264
H   1.9093957705018987   1.85242763402136   1.4344719228604856
H   2.398322226851526   1.0230777783152172   1.872455149942798
H   1.5804940964573735   1.428354734415822   0.7320546201967292
H   1.0963349853715594   0.8040237739998728   1.3983589377128207
H   0.36481650715018543   1.2234195353812933   1.932050166184142
H   1.3962634905488687   0.9010472305361195   1.6944482189343613
H   2.337362345418677   0.72613448559959   0.775521263267829
H   2.441950074221537   1.176695379126932   1.8260678082255046
H   2.068421467919484   1.6462076679696795   1.8417780104671906
H   1.450255843598545   0.0914174469401494   0.813468849146044
H   1.2709307960339606   0.9949539685483938   1.6789037193295095

