27

H   1.1664150412442422   1.2503990809911405   0.955936696014447
H   1.4507333228040786   1.6253331334500412   0.08828277977362514
H   0.9808676043264722   1.8779937975810632   1.8123688074856892
H   1.0754958239141925   2.088111107142914   1.8259446396953833
H   1.1150752701214268   1.0955925554668684   1.702583398881153
H   1.575547343007596   1.4799272314562104   2.5308248544928453
H   1.8955659159882703   1.5739412443641942   2.032605502653524
H   1.5696358934181003   2.3771026057415487   1.6635202243480995
H   2.562319907623347   1.6227514765003832   2.8633913177205863
H   0.35385018939807006   1.6659908426937518   1.1507483428715162
H   1.3142504128683574   1.3011415525513041   1.0537791585606031
H   1.7619992203783665   1.0359232810333499   1.8614769047962483
H   0.9723591489227849   2.192743141666822   0.68766308862784
H   0.5610332816135684   1.9856308680095223   1.5668889466773892
H   1.6292955559285722   2.0487815465588954   1.4182599512329124
H   1.2808273523730773   1.3070245232361275   1.2457441729875647
H   2.1935268552127067   1.9730924860603798   0.9907242030863858
H   2.5451708688072947   1.6073827822220197   1.8301118217592196
H   1.144878772373599   1.555473958527546   1.9041864643920208
H   1.395029463526233   2.4045627722258702   1.145139858168116
H   2.0400420262882615   1.9716176714644875   1.7272640686737346
H   0.387877031160192   1.3714464139568994   1.2641633267373773
H   1.9153155746626276   1.1170140917877918   1.2991334767217617
H   2.4575254550197743   1.850529178784862   0.8184771038745132
H   1.6343944531344832   2.187273951151426   1.3425124660740895
H   2.382516925805397   2.0173620352438753   2.1493378113733193
H   2.6384875021689687   2.7635918192018702   1.631653442894425

