27

H   1.4716625228697182   1.279490624364109   1.00766042721644
H   1.8836611711266482   2.196040810863071   0.9861931508237639
H   1.3203315334032615   1.9271339768248132   1.7623041806198438
H   1.5450101841800443   2.2947984921436517   1.05425072935126
H   1.2344778444473572   1.5672050787754193   1.6700914933528024
H   2.1493523991716987   1.4828243573141915   0.9708568315796182
H   1.6539870177809202   1.2676352730923621   1.9184826395546695
H   1.9631438394955452   2.2495481139728106   2.0151651479090638
H   2.694725967300684   1.1977862807505515   2.2234887671839276
H   1.1704638297488235   2.1534279861942633   1.5498404591291377
H   1.4604070781458962   1.295871565097179   1.136632149762606
H   0.6214553792339713   1.2073767515476552   2.0795922418716493
H   0.05546182569199225   1.5745369507414189   0.15974894757939384
H   0.6139765049164332   2.0299718531930293   1.1184010132453557
H   1.5085779052316106   0.7034559134288301   0.8572836506571884
H   1.0088670884408901   1.369188941452567   0.8699544705668242
H   2.374040467486006   2.3246405402585064   1.043706519447264
H   1.648432304528674   1.2798682308239056   1.7057143748154802
H   1.8695917688168724   1.446934906426536   1.8595537498031383
H   1.2888556292257338   2.237540601848963   1.7038083038533869
H   2.1343850298711664   2.76832974504594   1.97096797747133
H   0.9241501518629078   1.5339902086540487   1.4638027980773245
H   1.6951660389601977   1.8420172757520925   0.7801642036296046
H   2.274205606743211   2.5976772393733687   0.9223661843474897
H   1.579737077876705   2.1772217006737278   1.1991043236629888
H   1.6879270080947468   1.418175374707328   1.7723468291147628
H   2.7246324748164357   1.999391609259859   1.6011684294732953

