27

H   0.212599366366582   1.1443193920815584   0.46556626024043063
H   0.902062263672215   0.9901510400486812   1.1610954218983929
H   1.3990870266020081   1.5000578275057717   1.9048183151983873
H   1.07446542255401   0.9882565877742969   0.08037929356865993
H   0.584379176141513   1.6699046519037557   0.5615946775320654
H   0.9413585039982584   2.5590151265331   1.342847872508341
H   0.9279920358124774   1.0725130726118532   1.0728286193417678
H   0.9067039360798123   1.9982210440032693   1.504535159033145
H   1.8904065488720478   2.158265874651866   1.199516005006381
H   1.078861520681145   2.2446117548610003   0.5776449624508592
H   1.6243051861081663   1.7688451752955416   1.2306718785695898
H   0.5538452307165515   1.7022496118723345   1.2004199515042138
H   0.4946231156742312   1.3644381558072918   0.9938729261349661
H   1.3208427592270264   1.068706353509469   0.43985908883527847
H   1.515899231964202   2.0006376617608645   0.9150978148003968
H   1.30814018975404   1.904854013675312   1.7687730686547354
H   1.930383537127874   2.7198704755232503   1.0671351870570251
H   1.8882072967936507   2.630647332950705   2.0709158452760055
H   1.3027808746318308   1.437458442934531   0.03773117110262388
H   2.015029015712642   0.9375683026265137   0.7956161191172765
H   2.2492729427866354   0.9624590496626503   1.9721420058896677
H   1.4312462426487447   1.1299446645557552   1.0850862114469868
H   1.5564468980430612   1.9740502485804963   0.555770122833631
H   2.070248914843523   2.004392029172667   1.8634416512473637
H   1.3781372743180806   2.1341712644738116   0.7772646698681513
H   2.07934455227592   1.6993954788299859   1.2963517236318687
H   1.4856868279202267   2.112713173022012   2.8035133602863356

