27

H   0.14813881617018604   -0.12001738845755558   0.20287788252393268
H   0.8523647409966651   -0.23654165915783923   0.9505210334903762
H   1.6825369978083802   -0.3074347350686938   1.4269408391792708
H   0.2278980180326821   0.8795954242471764   0.22093578127785474
H   0.8087663502555137   0.7819171213023512   1.028292694083809
H   1.5224080199778145   0.6140904967659248   1.7069737569346568
H   0.4205550834368881   1.3688535745123411   1.045585268273101
H   0.8059018513751309   1.364854294624969   1.9181463728441885
H   1.68669817854383   1.2814872539425217   2.4035134917029306
H   0.7628699034726891   0.7260384908077551   0.12522012811989144
H   1.435905235737047   0.520433350857236   0.8334413011474656
H   2.3068010145743503   0.6484437874531074   1.4230213831949223
H   0.754646326498819   1.5636098871717667   0.7058994493934244
H   1.621848588558645   1.4062910839541192   1.2076883833877474
H   2.006916800784201   1.35556488769608   2.1237621182863773
H   0.7062277677937133   2.1463775225874246   1.6205809630296646
H   1.63896225642627   1.9847087516908322   2.0265480246119
H   2.0972123801661473   2.022090004383169   2.8892769669229548
H   1.4520682524880824   1.4404888538221183   0.114364664860706
H   2.2077493138017648   1.1488160416657989   0.6471698561682404
H   3.001571802412623   1.2616039446287564   1.1849000058904327
H   1.3896656071799989   2.32059734286744   0.48748466291651427
H   2.224390881852397   2.1494426238288575   0.9568924838760018
H   2.8229119304766055   1.90335691263343   1.9300581665877081
H   1.1811922591767006   2.925096165503525   1.294950766622342
H   2.1037729339534086   2.8041874125796484   1.7717855913212959
H   2.6833359330238604   2.6945800938662243   2.588826792256163

