27

H   1.3848415158963039   0.8854794579668946   1.471379323245767
H   1.7932153976577268   1.7918085581777852   0.8913376802918644
H   1.2901443594966597   1.9586159553323779   1.9389891096958278
H   1.0811226221973897   2.017415065455555   1.4349328361026663
H   1.1906234337974704   1.0452977552795315   1.2149466327804201
H   2.0002357764299723   1.8776698494820399   1.2810116675327345
H   1.4604466969332124   1.5337820671639077   2.3037485161691653
H   2.1972041417709147   2.3744718841685986   1.9125906767130147
H   2.5600333903434187   1.5554400959387005   2.247792418775684
H   0.7934137755813038   1.5357281750145644   1.9423354361610312
H   1.0831243058172684   1.1070456951258012   1.0616442838215343
H   1.6674615449295587   1.1200549526441252   2.437159032981977
H   0.04584064374326407   1.3535661799062404   0.6109518429488794
H   0.929575721681556   2.004526393076654   0.8754645344007592
H   0.9353711451068674   1.1023533631772096   1.3265301345091074
H   1.5646030595749134   1.1157186413441866   1.3343055206069614
H   2.484055575937824   1.5549088280899184   1.6135574094325662
H   2.1379871771131076   0.47602792067196037   1.731493285011855
H   1.7213352872325156   1.6183448641909868   2.307858535747637
H   1.0717048857396292   1.9931352450402033   1.4972680117107648
H   2.1445641828912176   2.27725248754871   1.6630339614117924
H   1.3397658971743809   1.0680225648664636   1.4684241762057033
H   2.0235690885841513   1.6452221674831091   0.8472439530567079
H   2.469400239568472   2.6445394920191254   0.822076350076468
H   1.4377240995385696   2.1331153025312006   1.21758054191873
H   1.6255673878232737   1.1488578994848044   1.7744116692419534
H   2.4683338418327287   1.3822481686153154   1.10940282890353

