27

H   0.4269321371301788   0.566008132912242   0.8887040881681382
H   1.1264620510145664   1.1086206963639815   1.7053618770204415
H   0.5925638711834351   0.4965096698260356   2.2029783004473873
H   -0.16621567547454574   1.3087715916676121   1.3608363841058142
H   1.3469733710010752   1.7267060715182867   2.373873353570911
H   -0.076691430867058   2.27729650468024   1.620672349512999
H   0.8221725388972765   2.121951891619926   2.8405891116749515
H   0.45712338748007253   1.9022208711031903   1.918177033823907
H   0.17554969475141202   2.659648787688433   2.4278213878805093
H   0.998383640536753   1.048790536016014   1.95476535763933
H   0.9620157355122703   0.39126463937456   1.067008626064972
H   1.617409093879297   1.2417861412666404   1.3008915093503557
H   0.6173303688387535   1.8335971835143627   0.8750526073941939
H   1.5633855880867253   1.2214180548153342   1.1879182471306868
H   0.812723802637695   1.7727044696603464   1.8448564063269384
H   0.6450165716031698   1.9793045020559552   1.8710362945280796
H   1.4045728985341492   2.5726593620313647   1.8704397695297075
H   0.8260460021762419   2.0378863737983646   2.830774369087893
H   1.170821625483385   1.25283263962616   0.9555380769219917
H   1.2965031037300754   2.385296945004173   0.40632265398054634
H   0.4398981719300201   1.7598076063150236   0.8778181449491121
H   0.6627707878250806   1.6612525729682888   1.8558174706861703
H   1.5146528108783712   2.125324302353106   1.4706710656769206
H   1.1855204842387272   1.2717883449238028   1.155342345638257
H   0.7154439691314256   2.938525175516949   2.255092159036611
H   0.6584266082008973   2.8916573756133133   1.2266016199230914
H   0.7322998007028577   2.0905548109677157   1.7807302247178614

