27

H   1.2552440221104548   2.2412798024855136   1.9604798199840057
H   1.7241359198103485   1.5879674937657133   1.3357365092986946
H   2.344896192594875   2.30217421089891   1.8118335241895753
H   3.3351337389239317   1.9764345711320008   2.109047953041702
H   2.451796337997449   2.0634579243034166   1.6114551785939504
H   1.3487788729904242   1.7769899236434317   1.5964304911181806
H   2.388331215097239   2.3306651342217815   1.987647208157109
H   2.6080833579949068   1.166791251693026   1.8650901482819826
H   1.8764031291744885   1.4610184833800377   2.4809972067569173
H   2.271136643684643   2.221048067737019   2.062466377889436
H   2.8323779136431364   1.4397701253511979   1.8014945039732613
H   1.9838655147122115   1.648338690397229   1.1761081777909972
H   2.8042054655710857   1.6029216255199434   1.3258409111644651
H   0.859949608555466   2.1682489182435565   1.447752478031397
H   1.6590739487381252   2.5337207880659935   1.1364729918936267
H   1.7143302737674713   2.0232555616852204   2.859208716176198
H   1.7530322901873663   1.9036280222298845   1.7775604830719165
H   0.8090220991064762   2.63192150528676   2.4661389609303415
H   2.0094828587274383   2.923297298536784   1.253961835749107
H   2.3865858351897535   2.305429005334384   2.071694987713687
H   1.3855753217227134   2.0425846076621457   2.0978454257929418
H   2.348225983849095   2.3001172766756377   2.0022130236434337
H   1.5130979321149456   1.8125060720558153   2.080667343883083
H   1.6491467523492107   2.913047001313294   2.3087488997714543
H   2.2453034817095383   1.2738138715958829   1.5976767391104916
H   2.0833604564266146   1.5009220446381035   2.756913936165558
H   1.504187730716508   2.1526947967482055   3.1782116995710887

