27

H   1.4239331236625055   0.6208660172461657   1.3471884018996243
H   0.950302249748475   1.393940430491874   0.8595507082979912
H   1.6719393212357248   1.6101725373532252   1.473996317182793
H   0.41122514540137967   0.8727001206783619   1.2004678431493845
H   1.617937943701159   0.8067009304592241   1.3077334582936335
H   0.38812679534518374   1.511596081217453   1.899140713470542
H   2.0449545565094587   1.8930107691947564   1.4988377327098026
H   1.234545811115495   1.5077359412194085   1.9387879327342
H   0.9431480363066552   2.1181288998665226   1.244489450614446
H   -0.10871380818559571   0.542040846868731   1.689339365624782
H   -0.13103897602883893   1.4554456609083395   1.0569417673912653
H   0.7146195664414513   1.0970684702169624   1.555263171791172
H   1.2009391875569908   1.3283431287251806   1.001557144077437
H   0.55374368996686   1.234130224421989   1.6767022859963179
H   -0.5560431044066588   1.6624065585735224   1.6018801021176214
H   0.1958077861092701   1.3577844944139577   1.1411544411841232
H   1.1521250567440453   0.8225347320970559   0.9769552039059534
H   0.3702945075769968   1.923929332791305   2.041338606496621
H   0.7397191693166989   1.7151586160687684   -1.1127725812238383
H   0.3911672575992556   1.733156841520287   0.09970420265819825
H   0.8275073984100365   1.9947886915801367   1.74515071858646
H   0.10315313246006912   1.8485017493513207   1.2095325978583962
H   0.8240750853806367   0.8393730669667461   0.7284613595556336
H   -0.08671471750168216   0.8852532490351509   1.1505518743673007
H   0.8106195104151982   2.021556186465432   2.0976028131368802
H   0.6790688892144887   1.9768254267363359   1.1454945264919565
H   0.7226774548526861   1.0547989484999318   1.7569231033503985

