27

H   1.3177220232858315   0.5353230384310945   1.5137616095979287
H   0.9478420139294514   1.2202454742675675   0.8099037723842074
H   1.6495405331122068   1.7515042301894057   1.1135294016091282
H   0.5441840883763175   0.4744820101707215   0.8901292913135821
H   1.7763987550686096   1.0389806959058188   1.1397347439598802
H   0.5260584302076133   1.4507759141503551   1.761661647929878
H   1.8777670346015745   2.350309451447928   1.5505880543016357
H   1.1783611958018172   1.602749881666143   1.7745601145244752
H   0.809649895489571   2.2679328149003424   1.0596100674496625
H   -0.25752637294635156   0.628975690315611   1.5238205153955025
H   -0.03372963402867325   1.2573371144366405   0.8163833072791713
H   0.5664131178687558   1.1467943566728618   1.621325592180453
H   1.0379265371038289   1.3862879021724404   0.8190193590264255
H   0.6002260531634295   1.1067503531335419   1.708860889319335
H   -0.4043878558527326   1.6632135876709901   1.3821679069408432
H   0.1625461663926481   1.5613995785588195   1.288946378021029
H   0.9166621008586633   1.1277745040658897   0.6923539183024643
H   0.477939827465105   1.9812856369906138   2.065988515820067
H   0.05774657888890347   2.2051977304393082   -0.7408417581770207
H   0.3778372857384342   1.8812849226875528   0.1733765747823231
H   1.0307329034939858   2.1952222876563092   1.923158220858682
H   0.11457784850843741   1.7323978711792327   0.9415148896778934
H   0.8763893239857192   1.1441903678457583   0.7159175211080118
H   0.049690865438319194   0.6953567116959035   1.194104191172563
H   0.9999354158421605   2.1214743843631325   2.0531606498377575
H   0.4676471275708984   2.0290114343793997   1.1549655009610829
H   0.9646727201010877   1.0403401321121262   1.966923360250576

