27

H   1.5691380980007295   1.1971628468890467   1.6143239170592094
H   1.679479095471671   1.6721824226683892   2.570745285968606
H   1.4106439397235684   2.3912625268378114   1.7202754024341813
H   1.022537143829822   0.5494004813014247   2.2250968547802334
H   1.7666244851007726   1.0674828499809395   1.8336900738247497
H   1.0182320360532053   1.4526716005871305   1.4181417323457535
H   1.2699370007356148   1.6011222590963963   0.6301024374167066
H   1.0595684129273732   1.6782097813618022   1.5325347700109726
H   2.0156030428318856   1.6420455546140043   1.1488425396333177
H   1.1690796537352095   1.643852938120471   0.7317897263831207
H   1.403062724293177   2.1276622488258132   1.624050134129099
H   1.7545200191440617   1.267549893706719   1.3953212900676681
H   0.600892862011756   1.456407328370869   1.8745739666816916
H   1.1162973308051514   1.2658099588183214   0.9580769427548482
H   1.1811958505639764   0.37902338932097057   1.3465239568959755
H   1.4497665615339328   1.0070381036809974   1.4759061653339463
H   1.8920152820469003   1.780932195185382   0.8751426753238968
H   1.109923148997661   1.1695739347559373   2.307910357367554
H   1.6220807621192697   2.2218955133499763   2.0646215379121244
H   1.0489921000469182   0.8528280832177987   1.3821078159492155
H   1.024177413134611   1.441051494326485   2.127608398267404
H   1.2851574367206062   1.3752617741515551   2.5989091699170737
H   1.9546078390737185   1.9644990623571077   0.9085713371633649
H   1.9838546535305248   1.5209566466426014   1.818193741427508
H   2.208595892070839   1.2199864967493215   1.9896084102583802
H   1.9668199476070594   0.2542180974447219   0.9672274218967896
H   1.3428236751478622   0.9202428057074812   1.315760267960848

