27

H   1.20464297391269   1.1457847682636872   0.9547556151008257
H   1.1751306076143548   1.3337855405710204   -0.15627386998482998
H   1.0835933749170772   1.7516743356856173   1.843713328428987
H   0.98617599527137   1.7827573100157525   1.936972287423296
H   1.0106761781793432   0.8744078637979334   1.679459813223097
H   1.9050369231852062   1.3327344225085318   1.9810192029959472
H   1.813284721859599   1.456924709738761   1.6508970858277012
H   1.3567881113542704   2.2824557316588967   1.9004884388050929
H   2.6520440139547246   1.9592280169811964   3.232030022496657
H   0.15253017166597918   2.026320359139086   1.3119612246127315
H   1.4383138297885574   1.1994415114293882   0.8257910751975699
H   1.6835687102296666   0.8315576761625565   1.964015169865463
H   0.9830402040879459   2.5773426604673073   0.8043629729677639
H   0.8067931870270391   1.787015199281115   1.3920291221339958
H   1.7488564133886286   1.8338757739723348   1.1168607854765975
H   0.972865993297374   1.5703723066424644   1.0437096917941466
H   1.8885035650553113   2.038026223214698   1.189333357539277
H   2.291030936467124   1.6689712332939708   1.9326131462450165
H   1.1566687107794105   1.412704761117394   1.9627831374844424
H   1.4161947465110936   2.4460694026009207   1.5365005697455167
H   1.890718692719295   1.6497778856036733   1.282743753224408
H   0.8987661860716597   1.5627674700348841   0.9554131135382783
H   1.8252296549537796   1.4092755797652494   1.4011911933427503
H   2.8036332682501386   1.716901238848497   0.8161408514158337
H   1.4856572284336707   2.3354433706028233   1.2801301753129324
H   2.1947497989111935   1.9053701710684756   2.133925675268117
H   2.4311377735071167   2.6247075336106094   1.5933251938928565

