27

H   0.1454082218896148   1.3799007799210816   0.12299280755690817
H   0.854515966269156   1.2266282979833225   1.1012732843289565
H   1.1602601244692006   2.2560315554890895   1.5652072485876243
H   0.8867681708566238   0.8567782685732726   0.29339578188888726
H   0.3791428049177573   1.7563234635686644   0.37250246629270184
H   1.6217104792475057   1.9207471069022792   2.5609438964227653
H   1.2347933239149806   0.7145889290135814   1.2169555937829113
H   1.021843646202929   1.9792939881962117   1.721668083130446
H   1.7854965262918587   3.1353816290088634   1.8372250716532235
H   2.0613416261888355   1.2203363937696596   0.7824104664135775
H   1.8210311895489377   1.424233232281672   1.7980178363197772
H   1.0430782498814752   0.7880770520818198   1.4003192141490535
H   1.01477630413301   1.580446431671324   1.1957243077834676
H   1.154088022308112   1.1479590922654967   0.3476629495712478
H   1.9464302651387346   1.243957290993467   1.0459507707656932
H   1.877500255127528   1.3244602227780156   1.749804713824073
H   1.5820249091688205   1.822405927807764   0.94932357835609
H   2.574259227423085   1.969782367025104   1.3186583916334134
H   1.2251171259279285   1.7494075870259953   0.4057033632831755
H   1.7646946381232962   0.6016326141406734   1.1204984341937974
H   1.7416631974248902   1.2256432130237673   1.9826713391141533
H   2.060063099599946   1.5786838666313951   0.9479880920261329
H   1.026830888698374   1.648865180360166   1.134429232012649
H   2.482044820791669   1.7791923004563324   1.8575410839739281
H   0.9978162847454692   1.5973028391819755   1.3445250922173007
H   1.6812466572859086   1.2184094597335724   1.9216274448950248
H   1.5765983588810712   2.2224613329921046   1.843360160157168

