27

H   1.7502690648491182   1.2467809357830075   1.0638122432934496
H   2.2914893162170444   1.9478602753914505   0.8860060872170552
H   1.3214434829901174   1.8645024856566015   1.6646034250279038
H   1.455715630394618   2.168215671079619   1.0014936103658436
H   1.3837594135993834   1.1517926495205564   1.367285300789406
H   2.249543216560293   1.5779905481119916   0.9773148835699268
H   1.0922696605654398   1.4478022221436835   1.9176974228561883
H   1.9423327285492213   1.9256302241619665   1.8082770767785
H   2.7785805391273204   1.2358594110347174   2.1462209103422296
H   1.3453485665758957   1.9031184164938395   1.805332343853848
H   1.4016373615964763   1.3165408034977153   0.8563073899672651
H   1.1944159117303645   0.9357120027249549   2.045386960202358
H   -0.19053520089064144   2.2267236138749547   -0.13473519167942655
H   0.5667845947153642   1.5620402302981877   1.1397015301452869
H   1.4071788075307716   1.0139975555231375   0.9832897225389131
H   1.2860895782522526   1.4696625235767244   0.7976980071698176
H   2.328996456430823   1.3424165081779134   0.9534988769008867
H   2.1267365252494326   0.6564317722195311   1.6752090503649044
H   2.0646262822808064   1.3804086291546083   2.1195612869759626
H   1.2733613192683901   1.9394056299971656   1.9765187090466882
H   2.271245468409872   2.299011462244958   1.5879160692142529
H   1.1459079482063352   1.39664809232066   1.5628951149960697
H   1.6254867462817928   1.7700441100623958   0.5793073094175192
H   2.4306897775406338   2.3519972172161694   0.48385853198793133
H   1.9008332844256461   2.1554190906376482   1.3193056955874893
H   1.5072064307332256   1.217565122549198   1.3573597479643487
H   2.651034547835297   1.4607829369049237   1.156040921146008

