27

H   1.2450047279810401   1.0484302403703813   1.5579898753591703
H   1.6806491714932095   1.679032350418999   0.9504203146845002
H   1.1173279871605175   2.0275566929298408   1.6887592405194627
H   0.7817816338582797   1.9643346422529597   1.4074947165799132
H   0.8823266041193965   1.1651356678452451   0.8126525207780368
H   1.7869027631044327   1.4010869140362665   1.2111407857988508
H   1.4806190400731947   1.8928634955942352   2.3242635332557056
H   2.685818367105614   2.217311179500737   1.6516202890241543
H   2.3908416182893246   1.5192189806263354   2.270823268493352
H   0.38920332278885766   1.5672741283454508   1.94554025704993
H   0.8729245211313557   1.147611537835634   1.1696481268993564
H   1.287856347875073   1.0965480404540227   2.0831279783614396
H   0.5490733835737074   1.7204058473443034   0.2631347844051264
H   1.1353271571233667   2.135226555528814   0.8685009963940652
H   0.8002862068235336   1.1838086578211107   1.207510629710256
H   1.219439537827908   0.9580752063619465   1.8962466158743942
H   2.4458573156752776   1.3683577858452038   2.1030808553501763
H   2.036010820371297   0.4891878408272734   2.134978948950346
H   1.7637687535846094   1.764928803076748   2.3952928695713753
H   1.0340116957169259   2.0437158492999945   1.6632708172692336
H   2.090124628454094   2.483743886826844   1.878247601935222
H   1.2005340155489082   1.0806114349602218   1.9181162039571829
H   2.0276436968958653   1.8064492439730757   1.512580956499847
H   1.8630334260519892   2.245023366363553   0.5803866919284021
H   1.1490712303412705   1.8098288445468953   1.209852071865079
H   1.4691330194745744   0.9081068524728824   1.9724274711844663
H   2.15911971300848   1.0336189840307861   1.2991190333920122

