27

H   1.319108903370058   1.2587369069783916   1.7549775392008942
H   1.8853175247561158   1.722120161725084   2.824226523869199
H   1.4070539683209082   2.2892396840945777   2.014202330086382
H   0.8898863543850911   0.4975464615508732   2.1767269836052434
H   1.6639879571279321   1.1131631320146693   2.0587801959818943
H   0.9453691626113794   1.5360426562546814   1.5425813487505644
H   1.4597701142607213   2.0171852622877364   1.09160126010407
H   0.861294834190044   1.214303448534681   1.107137742189217
H   2.0563789019224905   1.4039464718102388   1.4426380555522877
H   0.5882880410734707   1.0445304598264264   0.9077097840984983
H   1.2460823263866259   2.1207479030741805   1.9282657287691778
H   1.586166927558432   1.783726574277404   1.1237914007867738
H   0.04951349422375554   1.4494558084527243   1.5800580449837638
H   0.8949193783634062   1.3330587791151887   1.1505500227523726
H   1.7469162697914382   0.9320536245229326   1.5248625950436248
H   1.118260987542211   1.3574052742877516   1.7329715816479663
H   1.8079664224224958   0.9869846557819826   0.9995908007209101
H   0.8753423409138192   0.27777955857738296   2.0679324199103433
H   1.706674160434784   2.25675959574421   2.1573580297382637
H   1.7273331975197765   1.2999441061039387   1.955339475345775
H   1.0473364631037494   1.5153160152520493   2.5748767632807965
H   0.9564517153281256   1.4578458793577345   2.0696359185976148
H   1.3350448662255638   2.2332630571908325   1.5871665014462617
H   1.9419999248411675   1.6893703860503286   2.1067708665319893
H   1.9923574820705794   1.4168664684168475   1.9626357705712962
H   2.3513401124632454   0.4808362365035198   1.7032050657503794
H   1.2709192162343494   0.8483563565421867   1.5031843490791805

