27

H   0.3027440270452679   0.06205288655726532   0.49978604392910336
H   0.8267152337171972   -0.22263168419454563   1.3631948988815388
H   1.801634374955036   -0.0921337622673652   1.589514664723843
H   0.6341600558623217   1.0138310331919675   0.6678786854810844
H   0.5122335614305479   0.7368188353655555   1.5934424727740395
H   1.4222865919624803   0.74311940033615   1.9756193545108345
H   0.1543941431704316   1.7575989233994809   1.0804864284121585
H   0.7809693808396325   1.6646587631307954   1.8763366684804827
H   1.4518436139024777   1.5279998656437814   2.6533674662311273
H   0.5776355406337484   1.046976996440399   0.2399884653455699
H   1.098208904447249   0.6782626152193896   1.0396740613798485
H   2.0336678335716543   0.8643688232339238   1.512795901905179
H   0.9186316641294618   1.9593885176126524   0.5084932974482602
H   1.118610027925095   1.6140332890589826   1.4333972774859602
H   1.8363375623495433   1.6663990029068505   2.0875804665788795
H   0.9898621982756051   2.1006220882497146   1.562132281481375
H   1.7436504216755464   2.0335974413763296   2.166705319386016
H   2.328873450627862   1.863220736385156   2.912647475681286
H   1.262353959315795   0.4250846719612825   0.8175677560560305
H   1.8788792484703192   1.2401215970570538   0.9693798112563691
H   2.723251243137629   1.4970454679777112   1.3202519335441705
H   1.4686287920423016   1.3502774842464595   1.0632206739630776
H   2.0143687668608856   2.1213552078309474   1.386992425869062
H   2.8288121533301696   2.1763656806504663   2.034104456032821
H   1.936847364613696   2.3165691389050727   1.1865035168132931
H   2.0706217473441155   2.9189019020288365   1.983332708789273
H   2.580516291194696   2.839930742252913   2.8349585540208655

