27

H   0.429368154386814   0.46880894359804337   -0.23785871450501758
H   0.19636955971235548   0.6729998147475619   0.7355372875127354
H   0.9611750307109004   0.9685784656171447   1.1915517143049392
H   0.35705107733489155   0.9190899178577255   0.8818781841745684
H   1.555006441325837   1.0657188575453382   2.02029340146721
H   1.7040863551922214   1.5751405917332635   2.8351744115396396
H   0.027627778903859045   1.529701110065488   1.7077505828577548
H   0.8111883025019581   1.709043766945827   2.210301264848049
H   1.0155501916683387   2.3018914676376268   3.145914613696105
H   0.18598350700631344   0.9297665207401897   0.6568265761507979
H   1.1500147255905044   0.37440784233132124   0.6174433912867351
H   1.8444261048676658   0.3955710830805267   1.3366361744395052
H   1.023077419600834   1.4892318055651144   0.3166773792649366
H   1.6842837710255678   1.332806047744419   1.109391551810583
H   2.1242098126016704   1.2511634740151916   1.982872485955875
H   0.7009253319881045   2.1292075590968222   1.3222246326536433
H   1.7922936661084112   2.2178403714331094   1.5679705021482917
H   2.1451058010646413   2.2113202330878727   2.6074898310965646
H   1.4695099965755123   1.0740872025985952   0.16699049440471217
H   1.4244526079521513   1.321004137707889   1.145686719915862
H   2.2483532605207848   1.8620068982493663   0.9201641477423536
H   2.2475396113633495   1.7247541194316107   1.129755323319103
H   1.433703383148278   2.3226202635840685   1.543756605249307
H   2.355446472863613   2.296052925243774   1.8880939784111097
H   1.5188716284749646   2.595779726134038   1.6486183218961823
H   1.7890352830886864   3.5560543968398823   1.6974869157213432
H   2.6651976105769934   3.239198597490577   2.043657743047719

