27

H   1.375671248411056   1.345979124658991   0.952286295780281
H   2.0974154534596705   2.1634468879836315   0.8938156883647836
H   1.3415204622987884   2.2035371084117004   1.6415424311056417
H   1.3762302424901451   2.3955568076047506   1.1317996063957219
H   1.2173143563557975   1.4470639065028645   1.7743211526303642
H   2.0672670808025573   1.4324233376876376   1.2012525086697952
H   1.6216662631025518   1.4029056475222852   1.864529864297195
H   1.8261645314029855   2.398649641899923   1.8598809473667537
H   2.4783978466075833   1.4862323591167312   2.1582409809054623
H   1.113932558554605   2.2047793317116446   1.5266189057917228
H   1.6464491099362004   1.403058535455302   1.2836426263411458
H   1.014601536160536   0.9494929638679789   1.978193850137395
H   0.4167652959925595   1.8907562309711394   0.030181639259242846
H   0.7058064846314329   1.8632380908107642   0.9345911321601476
H   1.2609711758191788   1.0732028809916603   0.627439400313375
H   1.3383099575749606   1.572504049413565   0.8420213815383454
H   2.330987731637776   2.085735506848694   0.9455011346694752
H   1.9793373851814622   1.0753791768296825   1.3601027422148442
H   1.4669037020185747   1.1582687961698193   2.3644047353740594
H   1.1740191164552116   1.9542258307336104   1.9307122692605503
H   2.003341476465675   2.935633329443897   1.841404762533707
H   0.9187327318117428   1.6873635620422804   1.5995012784048508
H   1.6417388714497672   1.8138116951399859   0.9681508459383924
H   2.1860989132435877   2.622549711483305   0.6761357589392987
H   1.7716136087164873   2.379764744861476   1.4222186693841297
H   2.0849968141696267   1.435948356502965   1.7506315667082122
H   2.854829707259918   2.305665162604861   1.4489168509276986

