27

H   0.5259185668776389   0.6411295675911933   0.9954247712807417
H   0.5889668994757582   1.3025815120444348   1.7679468157492657
H   1.5711334434398698   0.6864835839330935   1.6560420784026773
H   1.0753233654213972   1.2148321438633423   0.40254381317233284
H   0.8276396286274987   1.9064402660311894   0.9649756811756388
H   0.47618786697364845   1.176301946773965   1.6785200483397877
H   0.5290832288816859   1.6683244439575498   1.1020639770568037
H   0.3204387159153791   2.5108977751365376   1.5185156813731329
H   1.292044197727008   1.887853257922554   1.9046645895477556
H   1.0263177075891259   1.1941114856242419   0.2971705908009176
H   1.4241422164301516   1.005109618841079   1.287130095048746
H   1.6623863852893903   1.4920553929360587   2.4357696685028536
H   1.0079301008253734   1.8989150555592704   1.1182308564062693
H   1.602548303749451   1.4748486255835114   0.4977729160538071
H   1.889336043270352   1.4579824916212767   1.4108734147483635
H   1.030001786462084   2.509020541510111   2.145345981568278
H   1.1055263082134366   2.108095722687491   1.1598759840133839
H   2.1098845960067036   2.399622294521357   2.1075660445365805
H   1.0024655211479354   2.349611728783219   0.3315311743769342
H   1.7735048492062728   1.7542169996691526   0.49113699699062024
H   2.448453812003734   0.9747870968214452   1.7381241646440735
H   1.9563619583676821   1.5289682015141017   0.88517595666894
H   1.8299887562840944   2.5106993431114413   1.0550787697446826
H   2.7227078789774484   1.834010901223908   1.3799606270854945
H   1.5350661068469116   2.4756505464660905   1.2354851670570106
H   2.325875486069684   1.7066744838073935   1.416034449410224
H   2.8467535434675226   1.6447201813165326   2.3429207123882545

