27

H   0.6849942913108953   1.4279635873151264   1.5565120014960805
H   0.7449592639113581   0.3554636934936204   1.0374445528038136
H   1.807453446467084   0.41890949660202914   1.3873676930508339
H   0.6559122109254738   1.600216990906762   0.6128596081855019
H   1.625788396326715   0.6515392503483011   0.5654804459973916
H   1.5009863279701723   1.3030394364278408   1.5732581367892684
H   1.0195119620863566   0.4824972490844941   1.1826655566146398
H   2.029159813033248   0.8285283776866496   1.4535312303971097
H   1.5912294570059256   1.0583749527891264   2.538486380157752
H   0.11461187023112135   1.1033415086224962   0.5771813098282738
H   0.8570211636740015   1.6558289839556095   0.968541711770579
H   1.6760309639269968   1.3871946367499086   1.6169042333942143
H   1.167390039037229   0.8100660907069565   0.8960071078160499
H   1.8003659291481937   1.3246655273426955   1.3974110955460013
H   1.7406500518176098   0.6617716217211924   2.2709569534750536
H   0.6332412985286011   1.3330959951157737   1.5591609150832617
H   1.2769614049731783   1.8985046292001841   2.06482712426013
H   2.286452772360753   1.8067608125448567   2.240891270794811
H   1.0883165008729028   0.8709185163654404   0.7856675456813046
H   1.5169001071619264   0.5458921742857153   1.6249412990631287
H   1.6344774745109483   0.919192020488272   2.543933580146208
H   1.9690024434761286   0.20710662039136862   0.6965693765644974
H   2.5084865345387914   1.0897254698729846   0.6329997591495333
H   2.3581566942986076   1.4066343037989422   1.9946608812589826
H   1.8654016673855782   1.3252454740026598   1.192469211143612
H   2.2057348442605798   2.338094220870079   2.1085960494784484
H   1.3724919456255935   1.8045760975250136   1.8723930125593775

