27

H   1.3287953183224868   1.1192240144237502   1.6938972552156897
H   0.43136828406139865   0.8859706694159193   2.0214215921775227
H   1.4026856953865208   0.6660030245378024   2.4743062476896007
H   0.9694881221452182   0.06436412219970464   1.494322671415357
H   1.796347595733426   0.41106081147527607   2.046455567858687
H   1.2690904608592364   1.1175744174508415   1.4862575956875685
H   0.5017119935547181   1.801296043694104   1.5082876987202467
H   1.182576157417227   1.1679678128754323   1.3236994461035638
H   1.4828261321834162   1.8469444999207516   2.009487778793687
H   0.4910677576713311   0.8219259300321865   1.2535289298189358
H   0.632950640133693   1.8304914242626942   1.4476698607169947
H   2.7734841803014496   -0.8484494644456082   1.0377746699225052
H   0.9847837119999495   1.6338410626173498   1.0108279773226432
H   1.9895898684140088   1.1883167746876133   1.5366955834357325
H   1.893789819019671   0.7495732170927422   0.6285277602450248
H   1.592173376742037   1.0579126418829123   1.415063199393061
H   1.503002824673603   1.9897360901412593   2.008535879336696
H   2.2567825715421423   1.353518458627433   2.1761601385047373
H   1.260707218986734   1.1576300603369003   0.6499828444946778
H   1.3801999722708083   0.6599942082349545   1.6353880315251188
H   0.41655086867668245   0.9500364377973868   2.1910876748197383
H   1.2582008524674353   0.9279774988350501   1.6396459678988085
H   1.8694307154208076   0.3979021827779935   0.8858214305529961
H   2.241182280648581   0.8477819236262238   1.672397538623655
H   1.6088661269748694   2.032661009599008   1.116712451794859
H   2.1181667356652003   1.2145918764816495   1.4827122378735376
H   1.3557889722748273   0.7209866194287131   1.9930120902880348

