27

H   1.0900754528521002   0.7852255017128251   1.532452189647115
H   0.1488172256842446   1.6114654391738847   1.8084095173727128
H   1.0756942719271303   1.8055341174279884   1.8404631216868022
H   0.9436453054413331   -0.07015679134637501   1.9588394527827737
H   1.9097413236264822   0.1499623212897675   1.839091999905145
H   1.3114228417163223   0.8642062369543141   1.2259404937396716
H   0.9300754663788333   1.657716683218754   1.292249408946108
H   1.20926969353518   0.9454513974030591   1.9011006602977103
H   2.102482271109163   1.5672340559404185   1.589815361825142
H   0.3913814088790752   1.1231809499544632   0.9856222576998094
H   1.128719728946778   1.7062055847045656   1.789572070458412
H   2.785106290436799   -0.11160170469213787   1.9825037913150685
H   0.7901248672474961   0.29430485732753564   1.0236300184397118
H   1.5307006976941622   0.918712673557265   0.911475069133837
H   2.054278454193333   0.17424753143694757   1.3235320866508382
H   1.4258469706985557   0.8012181375250969   1.5926386109041142
H   1.9734676196592953   1.5905450909931234   2.0907472709861303
H   2.747811590294449   0.8408449599005743   1.8018836560318796
H   1.5892816906961753   1.1883927794939229   0.7632087333075727
H   0.936056376891033   0.8000659820298608   1.3682786233537148
H   -0.049741615805740845   1.291590094298175   1.3567064641742066
H   1.5951693894912282   0.4402994942388984   1.558778087444718
H   2.13537240330888   0.12926905788962267   0.7621599359180637
H   2.2456897095004407   1.1464461274199818   1.120355033369774
H   2.059318077396379   1.5669751547875885   1.6448671241902486
H   2.068361421065443   0.6037519607053005   1.7225165412542705
H   1.2289671428376827   1.210329121049492   1.4127257439165946

