27

H   1.3204418251362067   2.7020995197841033   1.253266333817082
H   1.9436894796958049   1.9419609740326982   1.2594260473841186
H   2.2435476476928646   2.8190239036762215   1.5482218252382567
H   2.872959555728743   2.357416436829526   1.919527635045534
H   3.3596540937560477   2.3761185520106487   0.8951151084142842
H   1.6511145534581624   1.979335025063184   1.7483463353997017
H   1.9280021418797797   2.071959909804176   1.8041883032872175
H   2.5295505998816723   1.2669910586925093   1.9123760610482463
H   2.0393223789112693   1.7407084992109536   2.7163370117237573
H   1.9383896779251126   2.1436817901718785   1.7272613741967697
H   2.8280709663040713   1.6648667055494748   1.4270747458156543
H   1.6564742397661725   1.0849011158857391   1.7056497107040183
H   2.4648345180684825   1.4583655207581567   2.02089122339828
H   0.47824845403671157   2.147791755846486   2.0384780592727805
H   1.114101782901101   2.7976391615242613   1.6187435472512461
H   1.6673251912736122   1.502663756293716   2.569661096567966
H   2.0626036735878794   2.2292833356982564   2.024105462873753
H   1.2285210821285362   2.3609932353412035   2.5202919302534377
H   2.2633654963417325   2.9111334270536036   1.2480050886174858
H   2.471262676121055   2.2982286141006982   2.1175800890158456
H   1.4818946993572515   2.0982964175884065   1.4864858504511835
H   1.9895047685258778   2.408135256133034   2.3948546349799016
H   1.360679558989848   1.7380419646749923   1.9590514324955801
H   0.8346224588984373   2.3612670122806194   2.571901423229297
H   2.9958823713266987   1.6002263038714084   2.0884013062394793
H   2.118730001302875   1.541993200204738   2.686550918389132
H   1.2689381913607638   1.4737687274703462   2.2110214301116518

