27

H   1.4068437593205458   2.245182221703547   1.8699025422049498
H   2.294939332492431   1.983141490879577   1.2525109617489358
H   2.401688607628674   2.0411175551148704   2.35959423782837
H   1.8650123515114778   3.1469617195012662   1.7497336682580003
H   1.313721207894121   2.6514349139205655   0.8771341905983792
H   2.1546063346166844   2.273143286720769   1.3961218062486433
H   1.8180250411870424   1.9842833524986705   2.7304589219233883
H   1.9547590771772   0.9912319020498626   1.4088054336923663
H   1.2394830279073712   1.9597583774754377   1.8633566426064723
H   1.8392531097579197   2.7505589080762127   1.0681152146817945
H   1.3421315761810726   1.7506999664098175   1.5026885461239512
H   1.1083847486975054   1.9512982156367145   2.5818968082398563
H   1.5327453721542912   0.5438794446533113   0.5749958783263013
H   1.8002938875636978   2.4767361248092263   1.8472795552741506
H   1.1549609869466275   1.7349981956952643   1.3268823857820211
H   0.7702504663503821   1.9880513451000976   2.252597807441927
H   1.8201941470532543   1.4654684599022108   2.318603635786262
H   0.8854285937971634   0.994685484540257   1.9517586414434418
H   2.4660597105592448   2.208778393784449   1.7880565712428274
H   2.00971395354266   1.6658640023442137   2.3562513038890422
H   1.2903643430708756   1.9965886301111628   1.5923569015222796
H   0.9793406026052399   2.5960215873708856   1.8171681020146009
H   1.3462937647624134   1.6027841992837544   1.481964518291173
H   0.30115367836720885   1.6860358077445585   1.7819623597061627
H   1.5611271069747543   1.6794770266496861   1.75434394243504
H   1.0737811920196254   0.833708167070322   1.931630941149193
H   1.00645089896743   1.3497796679035077   0.9595562971277308

