27

H   0.514699237914807   1.7982771337887227   0.7428364501977424
H   0.6234146985584191   0.9098198631452693   1.1980019916761533
H   0.8418418026760327   1.771918622798407   1.7638636529563039
H   0.9853973879868078   1.0952517422005368   0.27029737291839595
H   1.1130639010279857   1.7967020436093648   1.1551949058266
H   1.8519718812989585   1.9075869677080308   1.8630573013894087
H   1.1419202310317333   0.6895004701089875   1.2563994897089912
H   0.9531518507509661   1.35292478159276   2.0236095460800008
H   1.3092846035808607   2.1708503543616344   2.9365783597035864
H   1.5285697572828456   1.70003459044743   0.7055415326841827
H   2.037959561612718   1.554975817768619   2.372588170503493
H   2.046268555732988   0.8075129875189928   1.700695963688158
H   0.820353532243305   1.42103143731353   1.3391120262067626
H   1.5408823364133564   1.0528060716666456   0.5185115061007464
H   2.3737969532875693   1.5565893916728215   1.179631493777129
H   2.1408878123706425   0.6986413724081203   1.4244036560548508
H   1.6979247845788477   1.631843512890555   1.3417450631810177
H   2.353820099712066   2.0062601181326336   2.142768324711996
H   1.0295099964610317   2.174591206161775   1.487342232555713
H   1.0978990400091104   1.4080017334984825   2.0842749903289093
H   1.8837517120347527   1.9954026589944671   1.8801298967749651
H   1.3295596609571467   2.0312650229212452   0.4623270485189964
H   1.0047009527293433   0.7364657265154503   1.2667863384854758
H   2.4336986882285965   2.632814503102385   1.479616969346366
H   1.7340482592169688   1.5614611815293322   1.6655777872831667
H   1.6573000662231663   1.9702325814867274   2.648322762057913
H   1.6228410766137373   2.852598899489491   2.2353056940151164

