27

H   1.2023529853866706   2.5554707893361495   1.7156869665973373
H   2.091348684331176   2.503231521129387   1.323291821643464
H   1.9545409846564687   2.4095280814882205   2.4166388219545714
H   1.7759758921771351   2.634196409708221   2.7114916814230927
H   1.2251535381289282   3.0109780965320576   1.1331897759850766
H   1.9553320595854184   2.3907942692062574   1.4161684548617426
H   2.4436365843991528   1.9741546349103694   2.435435201134203
H   2.7428148053675603   1.7200459609198588   1.191829207284921
H   1.1017486129162577   2.0210273681799085   1.944783006667173
H   2.0775353188721946   2.242768971150025   1.0463187727836096
H   1.0495560932969654   1.8493824267835426   1.274804752498157
H   1.2047250974223473   1.532231850386758   2.6195013647996546
H   2.3307288642871447   1.6756955099060977   -0.3031211916531819
H   1.8079707939878735   2.1918881231270637   1.9710054460837092
H   1.3195211346094338   1.7395801360795577   1.168744543811388
H   1.416703517972578   1.5073532976555246   2.5603911484438515
H   1.9368766831048974   1.3583681347022625   1.5033916141931096
H   0.89027890292235   1.1281602347817068   1.7687698471764386
H   2.1661902496304535   2.4497784032733403   1.9967810973803033
H   1.9832220197922745   1.529608249756331   1.6479662829304003
H   1.1916664503095384   2.1735250288798613   1.8058171596864299
H   1.0156189231885808   2.3686245155568275   2.116341279114954
H   1.2695350051193062   1.8609766748069507   1.089384882529681
H   0.5587757415349682   1.24324405382624   1.6755238444574898
H   1.881439695110167   1.5454376090774593   1.6737416672842127
H   1.0677801161270313   0.8796033161740431   1.3257833741077218
H   1.3871300243859532   1.7015657517551042   0.8094440580078289

