27

H   0.01983393347125644   -0.14300535072252066   0.3341228781271557
H   0.8599104411887576   -0.03527762276590457   0.8430133461372555
H   1.5017108799052763   -0.01769160396708161   1.5799156103580831
H   -0.11384135540860621   0.5471857286424082   1.0707406381981492
H   0.8137346819518831   0.8688856810548549   1.259227886791142
H   1.3296103173535605   0.8040339399575732   2.1194319118853606
H   -0.06919907102285912   1.42908946053167   1.5232698502255062
H   0.8428878621378064   1.5967644683242364   1.9370155370863837
H   1.3755938676330264   1.5393385345753094   2.7957594287901233
H   0.6553253963272799   0.5430075008731584   0.04632100881792203
H   1.5020558268004789   0.7241864355563734   0.5569732625610606
H   1.8352864605191135   0.9284213287771875   1.5104195957956763
H   0.7240115801028018   1.0932071553401241   0.867564458296499
H   1.5615978404967754   1.5247456874538705   1.1615281723350996
H   1.7530799986739223   1.7280530800667364   2.116192065261958
H   0.7929640246742147   1.892349670588747   1.5065508779515029
H   1.6662852667418637   2.1755947288228326   1.909369844309178
H   1.903395183220523   2.3833087837026303   2.8591050622555714
H   1.4400789176432607   1.1719069278045346   0.035689017465084974
H   2.247171057044431   1.4075628237551243   0.5910998445084521
H   2.7244747799270495   1.5020036921815565   1.4918871734756947
H   1.4831026309803512   1.71198935886645   0.9296970873842001
H   2.329436265970783   2.1981597180197996   1.2054544738526323
H   2.6202227349416742   2.253675288217289   2.123648387201862
H   1.5336331217777286   2.5562514390541913   1.4505245342290398
H   2.3451969544492246   2.924721459209934   1.8848914659518392
H   2.756060581967097   2.9570115798810512   2.8352325413786494

