27

H   -0.5243666073939376   0.9045446891454549   1.1042844680313817
H   0.45968650261125954   0.878944881560929   1.6162713492869945
H   1.458393075672998   0.593114116533747   1.7220413905598848
H   0.03279769664252421   0.544438065545378   1.908621711594574
H   0.3381341555399853   1.2556276652920841   2.6464769669195465
H   -0.39636451606079026   1.4748941688749526   1.8201843359655474
H   0.964098709820284   2.311901490691954   2.8142328529354765
H   0.7204872232288325   1.8540796534562198   1.8062278953778916
H   -0.01101944941472405   2.1765581393734985   2.566411586948853
H   -0.0241411847387608   1.3563359231382168   1.8110911915589774
H   0.3258829255917231   1.5663976396795043   0.842124904762977
H   0.8698120232861135   1.3468743530999592   1.5315178722345366
H   0.04031176723777205   0.8797281376187692   0.8999940663631405
H   0.8073536356377575   1.1920181451671086   1.8119429041679576
H   0.3895819499063131   2.222307665761065   2.0051441195437882
H   0.6878665939289982   2.0069247649008526   1.785741197992536
H   1.7689348640992253   2.842384865508153   1.6927308904331435
H   -0.24445840331416768   1.5155754444375065   1.8758163808016008
H   0.2143318199470846   0.8641033588730119   0.5100505173711005
H   1.12888395898879   0.679242949721087   0.959554735810908
H   0.2883957913101882   1.8035522081895814   0.876892424544703
H   0.5187281658984099   1.6323499775877621   1.63079312081006
H   1.383649296525903   1.7773297639819379   1.3092189982909912
H   -0.2445532270317167   0.4421204597201028   0.9782069403022375
H   0.06678619433357404   2.5033126451119627   2.367539281865792
H   0.7504766101152482   2.8320138138098674   1.5084741678026745
H   0.7250139598366949   1.9032134267410883   1.8631955345421547

