27

H   1.1454447543833528   1.0708768737307228   1.40207487168498
H   0.7741026171229825   0.12376931979634856   1.3228354693836124
H   1.0602760210588758   0.5006012299613097   2.198327623447791
H   1.29907910992027   0.03435964107325938   1.0876665627627042
H   1.7028301671296406   0.4342964965747207   2.067862881450481
H   1.3449036065606597   1.0036563161581449   1.3902743496458354
H   0.5265806886985487   1.7787939056506177   1.0664404529531168
H   1.1994029012395024   1.0408973205277585   1.4043623498409317
H   1.594937641687439   1.3872020122388689   2.267294166128909
H   0.5075466971352494   0.46466386221806005   0.8687529685059477
H   0.5585489962030845   1.2269092737288516   1.788365640925966
H   2.7719424149408125   -0.16214068713405064   1.1185064177192885
H   0.8034564067309972   1.7443121791618597   0.5321079487975621
H   2.061950957791464   1.1245760821653759   1.4195294579261606
H   1.9142644532065074   0.1723806970129781   1.1824938575485695
H   0.9932784468108004   0.7949356956776714   1.7278465250483674
H   1.5257285016673159   1.537744004490816   2.1563831206338637
H   2.180516187169516   0.7142828532348805   1.9617617325020482
H   1.4474513505816773   0.7541820592475208   0.46501760582367396
H   1.6530071966249618   0.5188101908549657   1.3845813072933546
H   0.17797110220597875   0.46444432901291327   2.5974707531778742
H   0.9009180018557879   0.9827782129945422   1.2746033342500185
H   2.5910553446982334   0.3531595980907339   1.1131391912023108
H   2.1818016420408224   0.8499398337609373   1.98380240231905
H   1.5025224510672543   1.6483466318697342   0.7664873278417778
H   2.2309426950374625   1.3004106175320544   1.2447167342766237
H   1.3852289526307349   0.8732960760999892   1.3963993974122668

