27

H   1.2631547685801257   1.3219002944961737   1.0012365581268052
H   1.738509353590585   2.4631836326742254   0.8881448415188766
H   1.3489619523097607   2.112578815150043   1.745473606538795
H   1.3090484168210157   2.2831781772628448   0.8051196395713688
H   0.988160516923227   1.386571872484462   1.6544230090064307
H   1.8888649176742713   1.6259986147154137   1.1898478144175924
H   1.7722467509070798   1.2367785167450482   1.936116007541548
H   1.5922047993952295   2.2620393071274814   1.9457937118873903
H   2.7452393367908967   1.1907267261417294   2.08665985779231
H   1.2432875283169302   2.151731276790637   1.6116585702952129
H   1.5920296253836237   1.2622290572240478   1.5151122962721006
H   0.6368753167940767   1.4346044446485668   1.9057587739693456
H   0.08806055080657904   1.4178962653823493   0.3196470224484727
H   0.6655791573662562   2.168148658434152   0.9390944921696183
H   1.2197573463125944   0.7520061026335371   0.7739547095993341
H   1.2687610344762044   1.5443924996526468   0.6856963804286459
H   2.052588073175177   1.9446172700622348   0.9203921748870745
H   1.5758565373115792   1.5832181192739563   1.6459918326771026
H   1.7814071271813108   1.4003854598431411   1.9327258478137443
H   1.1108040145908649   2.2623397858924146   1.7330018942859486
H   1.8536508284369857   2.8598506567260356   1.6033933466702244
H   0.7725819288439199   1.6086703318016602   1.5177249394691252
H   1.6737714427645418   1.7245597079963575   1.092015540491026
H   2.35707776718694   2.3614389445098265   0.7926962038251819
H   1.5114643199102547   2.220527617779433   1.4643210599743444
H   2.045420289134146   1.403495126881174   1.9038846121098048
H   2.6188645598567053   2.151339471958894   1.727048711822733

