27

H   1.196999061163721   1.1174973046390313   1.4646776161177146
H   0.2705300219506311   0.8571046627560761   1.4135821021475852
H   0.6795887483676075   0.8227646929198279   2.587326074852183
H   0.8534829407287177   0.1432222849281366   1.8342019369891458
H   1.8493561302892034   0.505034569926529   2.165314167606015
H   0.9767896457434753   1.2160060787081033   1.7199663544878756
H   0.8860056978314815   2.087639580615375   1.9613929817007603
H   1.217176363288172   1.1192779518104135   1.5910500306563133
H   1.6553718196371012   1.645014878976872   2.288288039549952
H   0.6744921598033936   0.5308974215160327   0.8229404621914983
H   0.719145125753289   1.6544681786541582   1.772630048948058
H   2.2737896552436756   -0.20801142232964864   1.500008931540661
H   1.2498709155886767   1.3587880908383898   0.5950353735855197
H   2.3498518247546603   1.2378792897301563   1.3003648236007017
H   1.6667166262114954   0.5020394147799019   0.9950123583793468
H   1.3544206561178793   0.997400374922282   1.4929701681820193
H   1.7021067025398984   1.882504563699515   1.9953267754754527
H   2.0994973273423088   0.6878012055819177   2.0912055242592165
H   1.558473425879358   1.0400207272609245   0.6017443569210136
H   1.1393013154698368   0.6680517230804517   1.9884457793268653
H   0.23566717990406627   1.0805375167771385   1.667412389518891
H   1.2410980727912049   1.003886007088724   1.6269151240011936
H   2.1168649119323626   0.3853712619194759   0.9659263078270731
H   2.167992716949456   0.8404232296822138   1.8432992303330642
H   1.5948644519744937   1.8894029246631623   1.348964245411508
H   2.361987990227976   1.2008027695701304   1.7786448697759232
H   1.3072673023876742   0.9725955496286486   1.5447627388107723

