27

H   1.3190017889069054   1.1457190711971639   0.7904543441564921
H   1.0940200888592768   1.3865653480535498   -0.16190873260372282
H   0.9830906673549298   1.5011716344639587   1.5854463788325523
H   1.0812099997533797   1.6973973489227345   1.60074276635877
H   1.2496152219007397   0.7184452188012411   1.9045132888027947
H   1.9257405936166763   1.4482129874970096   2.1870671452432333
H   1.9016982650306677   1.2396000729263634   1.546953280679891
H   1.398025445790081   2.155924849088398   1.99024488628176
H   2.9020243477963445   1.7761594621088515   3.068117532278963
H   -0.2760538970743892   1.581004896741269   1.3620356951056343
H   1.1743721928451807   0.8819583028991379   0.9965921347826738
H   1.878380125278415   0.8925976204341171   1.8520068513212837
H   1.100624934088892   2.375179073355117   0.9051222043006315
H   0.9265463516824194   1.7108348406093403   1.5085830344644104
H   1.917256335492099   1.6425069674079555   1.200379467551566
H   0.8229348346460726   1.6764756493512125   1.5288803524078227
H   1.8159303776632998   1.678618949861328   1.2742296589872797
H   2.417212018716358   1.6872261038007013   2.1508690581170518
H   1.0632958509645056   1.2102344841716972   1.7287936983088126
H   1.3045167297716844   2.2565691321563195   1.796549169262223
H   1.970436685325713   1.7572690262885222   1.2368094824298204
H   1.2279127344727374   1.553821803361792   0.526872848749538
H   1.954475750160059   1.4885408524307013   1.3931769752940157
H   2.845143687573282   1.3651833215433788   0.9799659194571019
H   1.7351316446088052   2.1916609572489687   1.263846171840083
H   2.3801356483265206   1.9705595594509184   2.173933486768717
H   2.7311639422008693   2.3476283386850243   1.3455735710212773

