27

H   0.7443932405535484   2.109688902986313   1.181798624530547
H   0.19281085848504437   1.3128248738756476   1.3852603080053913
H   1.1416020434034755   0.8947997559269767   1.785614636428871
H   1.790852890814594   2.1612876320883427   1.3693364191139725
H   1.078790232888315   1.7196074848511675   0.7801640426115241
H   0.9817607930305773   1.8155173855500024   1.7973935159541385
H   2.4982026721540658   1.3407768818193904   1.2427535761123591
H   0.9902073605748989   1.7404906555583939   1.75668958168023
H   0.7518272576783015   1.063124638476109   2.7052555175315267
H   1.8953116311286695   1.8605635822764486   1.2966449494818224
H   2.9547505469807502   1.6548310177696661   1.6701116853128608
H   2.3884796746407146   0.8228484510736626   1.5016970440723338
H   0.5728473390556331   1.66981089819655   0.9129387683617836
H   1.3745473426848498   1.2576746797439324   1.5476139037153265
H   1.67705251943794   2.184341754796787   1.0733701174539227
H   1.323821854847642   1.081142738563241   1.302745928213235
H   2.096758790792275   1.960754261664519   1.356038050465277
H   1.613097993789314   1.3303327738109973   2.429784434106923
H   1.097680993578926   1.6755222043045004   2.686798505183976
H   2.4075746765377004   2.510451209325216   2.027089572472136
H   1.844571398222026   1.6487878940663683   1.9436535619006878
H   0.7592189568467004   2.0118477170257   1.7340206519982109
H   2.00367127039159   1.968598176151583   1.3389725344427674
H   1.4908520488916994   2.698865957967256   1.8799325176426143
H   1.7083093221001493   1.775378197612799   1.8042916096648796
H   1.4197848240326716   2.715001139310757   1.9231254522711383
H   1.9434929216251615   2.1834496035221527   2.8625244093098408

