27

H   1.2655389339503855   1.0311569806829814   1.713311582249807
H   0.33001040715481317   1.2127153584568546   2.1604731454991515
H   1.0483232649084149   2.04121277329421   1.4094164906457987
H   1.0705655735842097   0.09694132052247734   2.069210643580467
H   1.9418209974498977   0.2976301842604641   2.077477356458209
H   1.3027445554982973   1.210875712363657   1.8046153419851558
H   1.3679733676443457   1.987324156145582   1.3138859233036382
H   1.4322759510371106   1.2092545102544   1.802773472408545
H   1.8673507876374804   1.2018355787893382   0.8970379539365452
H   0.6393478405281533   1.448529173339923   0.7855355196948733
H   1.4571376554334772   1.684305430830247   1.568617565114347
H   2.5254585902996407   0.9259556762015927   0.7433139201224788
H   0.352072544868304   0.6959029749227648   1.41620559590663
H   0.9691901930563616   1.3524490873097625   0.8239853521045876
H   1.6507372576678787   0.5787351001937695   1.0209392914948436
H   1.4734083549288397   0.9697513382267136   1.1580672556426552
H   2.1582666030998046   1.7234647845744664   0.7447579875702623
H   2.356241435217446   1.178294362744173   1.8067140066791245
H   1.574175116368545   1.7349095928505827   0.9868385816264776
H   1.128534139360036   0.7457311151199656   1.5228489814487216
H   0.3662899512406024   1.4290074945750444   2.1052815069437023
H   1.2509199947139091   1.0168352867292771   1.6997738504014275
H   1.973831906491573   1.3547241009546491   1.0878418641975183
H   2.212055920992457   0.9214575115883739   2.0316917985739438
H   2.221149249050198   1.367650875575367   1.6646404419921481
H   1.4960106706776135   0.5309848089672792   0.6818164787091102
H   1.2288223862072154   1.250752294468524   1.6376806362062912

