27

H   1.5682339147931692   1.3433329676627133   1.8671936332159722
H   1.7947377463772891   1.8639937527961894   1.1405199763237293
H   1.6329361747750173   2.448227856625055   1.85467894685878
H   1.3940796578383738   2.234349648565556   1.5686492797294775
H   1.4566194151003629   2.8041636404193016   0.8121465397004042
H   2.4452988382935685   2.7416147858508655   1.245632735989224
H   2.3083515950540137   1.959303698103853   1.903115866387822
H   2.3563540764725226   2.7537657255941013   1.0979256593735431
H   1.8283220840802021   1.8135062952246295   1.0898267675195914
H   1.7463577050802948   2.265875493935041   1.4840143553586127
H   0.6698129496380175   2.2091490769124236   0.7065321374587906
H   0.9931860292706765   1.6484983989069832   1.433292065636683
H   1.2695727086447537   1.374673189571636   1.0845288243374378
H   1.1621542411999606   2.3767968048357546   1.8976477633599083
H   0.48409401275000413   0.8043813700255094   1.5269820395221243
H   1.328004391389463   1.4704487579439438   2.124044498292131
H   2.1157332899466144   1.7634957951294785   1.1216292637223566
H   0.29476206620010886   1.4566796813706884   2.255248793429956
H   1.3511190999833267   2.0654003148713285   2.546652483289429
H   0.8152353505338182   1.6966304901563063   1.5249931581584313
H   1.3414895793197947   2.4562130892137293   0.8809957528485245
H   2.134713340723022   1.4781217549196737   2.2261273671751036
H   1.8158688828194496   1.7849994887451124   0.7387553476292791
H   0.7396930431216422   1.7548124596929495   0.8913456974604904
H   1.612263542233111   1.8873845954972215   1.1883328156427613
H   1.3508991364714282   0.9487886368439675   1.059855029084306
H   1.2989444164965178   1.583429332033459   0.07387310737471121

