27

H   1.3319560336156229   1.0756252445400944   1.7566196666105665
H   0.9170411539218951   1.3466966157338918   2.659595034127711
H   1.1787607813306353   2.0457535829294153   1.9669797265806128
H   0.911922542409899   0.5643143617400889   2.4600853344946105
H   2.0353984059642416   0.90487118116028   1.8160748925481998
H   1.1260026772996765   1.2167529620347213   1.5842558425193913
H   1.5280939830759406   2.022458154051823   1.1434744265299117
H   1.0594667520319085   1.2999929479120242   1.6860610380570313
H   2.1139333401047997   1.483051568575527   1.6788934487971705
H   0.8124225664615466   1.2981808215439088   0.7442396376394098
H   1.4511653230451533   1.9575017752339754   1.5961558578344404
H   2.2218753736087513   0.9986992474786465   1.0562999979809091
H   0.7352288574949342   0.8227508514177958   1.5618812387455565
H   0.8423376637404392   1.5892067313584957   0.9232525052849648
H   1.2837844676364496   0.5543963501814464   0.7485626645481358
H   1.6748105812088327   0.8755802335442637   1.330037654185128
H   1.9215912599437823   1.6884820374992018   0.748640806807495
H   1.9979756100469197   0.83193834436021   2.4296292025234707
H   1.43680113878697   2.013470921234582   1.1083617508028432
H   0.9145713011126396   1.2434586767820321   1.5653700445996765
H   0.2329353939739017   1.6275533518781313   2.096916179164945
H   1.2055317733701856   1.536259692492328   2.0404144106444897
H   1.8597884733589516   1.609216977184482   1.3115082388130266
H   2.097473675744868   0.8489485458452002   1.879391122944735
H   2.214218990500366   1.5141468179485598   1.8236386851249027
H   1.5112424209528639   0.8370898611949842   0.854654130162285
H   1.1155606501504947   0.7002769911153571   1.8018845758769746

