27

H   1.5688539793762408   1.3763023162887222   1.635445788023996
H   1.8196640227679899   1.8389673686343837   2.91505014991763
H   1.5424390877617777   2.188201032608029   2.0414417749462013
H   0.8373357620702077   0.44372031020294733   1.7566479106574622
H   1.647587305341508   1.2147960798001236   1.9950613271212398
H   0.8829392333183206   1.4692136172445822   1.444261024923319
H   1.384119775560045   2.0098404565123746   0.8828330092469739
H   0.9135427520365416   1.1722020442284293   1.2343948120982746
H   1.9560157652713754   1.4198255840482779   1.4458950690942864
H   0.5875990943309476   1.1674227563023727   0.885764314674272
H   1.4368916928252737   2.261670281609858   2.0303692669152555
H   1.4553769057695958   1.631137099235332   1.2110389103179362
H   0.01109265726995104   1.4335268380568982   1.7538759005878404
H   0.9390191569069406   1.3113023636244017   1.2450528363245283
H   1.6107950247027392   0.6047066601390176   1.679996794191911
H   1.1936029037732838   1.207154705740387   1.5393766628833367
H   1.8241236850741425   1.283809991629174   0.6006774654442898
H   0.7208880468061475   0.5863314167105366   2.2019187216325884
H   1.3683542281121102   2.242703397177905   2.035868401448556
H   1.562164758722788   1.3223846011350646   1.7126171721202288
H   0.8558577901460415   1.5825250051178363   2.5171421928060544
H   0.9263125483136287   1.3657532238439727   2.137440721651624
H   1.0788052973366966   2.1800229893599714   1.6887485988148343
H   1.8975857489226216   1.5020180903713871   1.957935209466602
H   1.9570999001407092   1.4466885479449911   2.196180700608456
H   2.3866267603446736   0.78502296467319   1.6436193396446
H   1.3677747253350303   0.7435611187588824   1.6125807461481467

