27

H   1.546516299587188   1.0444480650644747   1.3737712500605308
H   1.6211863852392971   2.1278240177919554   0.9100217367385842
H   0.9641861322547799   1.654116652206875   1.7601370409000485
H   1.0862697273944433   2.1475801307865092   1.5931860714991946
H   1.2332797518728076   1.2174305972584734   1.342802679773586
H   2.0048781653086207   1.750845413648687   1.077349479191469
H   1.5042757369373827   1.496006968714938   2.1640464704970435
H   2.245202376978056   1.993133624899835   1.732715359250136
H   2.938413189044139   1.3336743021441646   1.952534565218592
H   0.709448322400902   1.5353034028594488   1.8089183266810587
H   1.3614219102165313   0.9846868851939181   1.1747357823587332
H   1.26961906148013   0.827168777498818   2.232726588323492
H   -0.2140287712731646   1.5249046854525135   0.4342675487242665
H   0.4312712445634475   1.7141533462944112   1.2020493089125373
H   1.1371600685890848   1.024021547574228   1.2833234763616506
H   1.3728120468907887   1.463997092910176   1.0335363914392368
H   2.5870692314264567   1.519159124866382   0.9577556416560431
H   2.1626064018451356   0.9163702959260678   1.5591659174436112
H   1.6891414364782877   1.4149578308358424   2.2764350749508186
H   1.0196189041321504   2.0467498036209157   1.6819613916978078
H   2.046031027549017   2.296685663214047   1.554912618574213
H   1.4308608580555653   1.0254228930117686   1.4221769948280039
H   1.9554426312187179   1.7813412752202933   0.7608290885880548
H   2.6710230813676534   2.443474259457088   0.8239136834789753
H   1.9650835870463992   2.1601504912681997   1.424193231033845
H   1.5819117570652634   1.2654299603292616   1.4843645306660536
H   2.6339034972707713   1.561612870973274   1.1002969697791154

