27

H   0.06689065988400952   -0.20628397184176755   0.37343834333640724
H   0.9593840737512392   -0.1067552600684189   0.7799880372473245
H   1.6288056006430816   -0.08656329476219288   1.52822482548691
H   -0.10995055053193115   0.664281345810668   0.8582892063680216
H   0.7923828046346859   0.7625150840900534   1.263815493287
H   1.416484727983929   0.7503022409987435   2.0431316422169306
H   -0.10499216031135067   1.410770861834324   1.5603198047727407
H   0.8210807293155465   1.5503497164045286   1.8846328492098845
H   1.4460829186692894   1.5372286909987702   2.6524681478817214
H   0.6428985126456088   0.5536906555063615   0.12337168878326309
H   1.5259823882957952   0.7162131169523291   0.5995363098997233
H   1.9597857525895102   0.8631722538682574   1.4621407688159362
H   0.6808778382267295   1.2872763790895805   0.7853699924662723
H   1.5320623044560837   1.5015472374719372   1.2130082395382449
H   1.8995161479005334   1.6058362274531013   2.143112683354662
H   0.7219632980105553   1.9953891762112304   1.5159024080440748
H   1.6126409470566851   2.163334563156444   1.960987359005012
H   2.078022892951298   2.272447770507118   2.859916449638805
H   1.3912627886011337   1.1876586978309236   -0.010735767449804763
H   2.197842315761   1.453682250782013   0.47258868081124866
H   2.6830321199454388   1.57159836802695   1.348067784893579
H   1.4474769838916293   1.9137664394261036   0.6805616909238084
H   2.2776673886489296   2.1803736031265744   1.1649384162620045
H   2.6584780886403694   2.2794511549003866   2.075510207608843
H   1.4507172454637387   2.6604280226476886   1.4116222765036925
H   2.321913379561026   2.8528230430407224   1.8969726444110795
H   2.768477950505293   2.9939472837006122   2.7903730106945948

