27

H   0.6913266862764293   1.941633114871195   1.4969517894127362
H   -0.014222537138510096   0.9204394766312692   1.4580661830316788
H   1.0224689346982208   1.118203920494765   1.9020113570824655
H   1.828766598849048   2.130501700488378   1.264006691573027
H   0.9099452542263758   1.9960505634450987   0.7671672958085132
H   0.6135556642455594   1.9962803777441076   1.8211309247044751
H   2.6159849392040515   0.9286564871989663   1.458434666496341
H   1.1526364239592175   1.3924702054017224   1.8368082172277382
H   0.6145677747763039   0.9872133510039768   2.7402168176718424
H   1.6955351549562712   1.8982442650979068   1.7117805027442867
H   2.925201397570245   1.571422332191021   1.7202377004048168
H   2.0591328201177963   0.9561810245361367   1.8028970693494342
H   0.7852329722169277   1.4581377833374842   0.8510226216095601
H   1.2638798388754133   1.186272751461564   1.6710062052027759
H   1.5332450609284844   2.024085329835171   1.262549601272349
H   1.811351824171639   1.232529426719991   0.9072040589407171
H   1.9526653743037339   1.8925827750260578   1.5490987975000288
H   1.4149504760862528   1.4153106274864238   2.2624546579806006
H   1.5631451743315747   2.297270131601939   2.5428056421380676
H   2.3266687252240286   2.3639223546989685   1.9319041834722894
H   1.6465084134597854   1.7940230314156433   1.577093214084105
H   1.075866613255281   1.9345675333253767   1.8159203048214474
H   1.9285358100409162   1.9381245367054125   1.1882666243382687
H   1.818368121561727   2.870285540208391   1.7936416451409571
H   2.0552890498277026   1.6714031991631435   1.8183059910736312
H   1.2947620147373242   2.5796050872176846   1.5431407630671907
H   1.7337751265321129   2.129545869686382   2.730380329906762

