27

H   0.2831921588623804   0.23617168581325032   0.6882055002962227
H   0.845338320156458   0.722980931259364   1.8281519374132378
H   1.2092804526667476   0.1030606639459439   1.0994468336057097
H   0.9310201423753564   1.073243599427824   0.31573230380344314
H   1.0013735271478565   1.4997642976626377   1.2388386126304536
H   0.9554337072392366   0.8104496578152527   1.8643985993661671
H   1.1758051519296706   1.4343648295242932   1.268013780160358
H   0.3510462001089656   1.6167162637462744   1.9821972178488567
H   1.441942948686307   1.560698691006259   2.3231729515874355
H   0.9745405711607187   0.8737176222284282   0.16307400564643082
H   1.5380595063477203   0.8570864302281718   0.9854232236893082
H   2.0498784681839686   0.45156956129835857   1.7560284263130486
H   0.7755520499931471   1.6352989458255955   1.1252517932717359
H   1.6923021665141127   1.8095804973549545   0.6401134485140615
H   1.6261042829699686   1.5065878970833788   1.6411127829538843
H   0.550037539209744   2.089346076178359   2.0156355671392205
H   1.3454716645557676   1.6753596641090016   1.5134078156910942
H   1.757205291927583   2.524295567203902   1.9823740091958428
H   1.1130348843506668   1.8435717860076672   -0.1530928414926616
H   1.696804834163792   1.7718136132179643   0.7720843748190408
H   2.5144391712998475   0.8253877404473658   0.8184478000386246
H   1.6495191250961696   1.9397263092238042   0.6645058615062891
H   2.7668327595787687   2.1425192894108105   0.8523201639255277
H   2.5772198676471696   1.7632232778678754   1.7372496989150767
H   1.6165715688797282   2.510103837223144   1.4670671905826187
H   2.31316852590756   1.8743603380297584   1.7064426248011193
H   2.4590301689757856   2.1731464853469005   2.6007512707305978

