27

H   1.1878675868306359   0.7720329767149922   1.457869094430983
H   0.21562666267401182   1.543852239605724   1.8716301913630222
H   1.1955118733897996   1.8683242757747995   1.796718475740423
H   0.907726688081095   -0.20712620613005614   1.956527425179487
H   1.9765529441952592   0.12636618097563185   1.676473308935763
H   1.376065416954023   0.8367249042437314   1.350907142030935
H   1.1221646295004448   1.9330181187671842   1.2782840948434917
H   1.1087360905286752   1.1156789489850538   1.8170175533673163
H   2.1400794894169315   1.4772262753661902   1.1267620322723042
H   0.4459934317543068   1.1508092840406892   1.0172491170358031
H   1.1854160515160015   1.7229731507553439   1.9952642851364646
H   2.8475422864604156   -0.09337644273759063   2.2293371197588225
H   0.8143654053901839   0.23032609540239374   0.8857316688907901
H   1.640670321163853   0.9599492224853525   1.2055168528462203
H   2.284879174496936   0.26970795834248673   1.3493751407059582
H   1.3273168819809091   0.8528581264136291   1.4742403626626113
H   2.1141651063461806   1.5106508556927696   1.9513459597768794
H   2.9412359726459925   0.8300791502472267   1.69694266567426
H   1.570105191873474   1.2045208585640212   0.685882108824951
H   0.8641153054217975   0.8732179929516579   1.531421073397919
H   0.05610067284574988   1.566026020162395   1.6313561921031745
H   1.5896470565043057   0.4762977432565232   1.4895466118465757
H   2.247212361677961   0.37978304639130345   0.6951912099397134
H   2.3533349033100164   1.2905274885120985   1.1763074552294286
H   1.9855787014440118   1.6259244135914368   1.6356700686995214
H   1.9975796684772702   0.5729174239569749   1.6866930742153368
H   1.262349509176815   1.0990958270664277   1.339541587294533

