27

H   1.0626115995140162   1.1666421564861136   1.6319550663598132
H   0.7542700736138047   0.5887834668285071   0.8864302695049484
H   1.3786170968824303   0.22224506796453147   1.58536235542199
H   0.7251455924941876   1.0670235751781056   0.320052903091394
H   1.7541200450819372   0.5773359602698372   0.6239623198069273
H   1.4885904178328138   1.1502142362035093   1.6170553240682553
H   1.471742138352508   0.721532524683889   0.9009000574555259
H   1.7548672281032789   1.329175692187307   1.6615542608495208
H   1.7022777341528905   0.44802647422091885   2.4694212898485923
H   0.8019510670859791   0.34097164277283964   1.133822988687479
H   0.7612822222483103   1.3495234654775672   1.4752538302842308
H   1.7546111896220506   1.107867463791594   1.6248306540706794
H   1.532860678187608   1.2577243233769073   0.7969746412989647
H   1.7117452010899386   1.099672790058248   1.7027997412308298
H   1.5434408725666655   0.22687682940842763   1.253405214021987
H   0.9478791927980196   1.251248392919943   1.6395507470230277
H   1.21834219606776   1.7849635375705013   2.361140010559098
H   2.71374260767923   1.2510924556949945   2.285850810205092
H   1.613995175129041   1.279290188346726   0.7491249142862781
H   1.4777907531151817   0.4783286465028094   1.5174380587526481
H   1.3479955466480604   0.7122455748981156   2.5281454189273984
H   2.222990084033721   0.49173952289329165   0.42893344587796517
H   2.7111208339827138   0.978854320505264   1.219501227698803
H   2.146677387671789   0.398348029825106   1.9386329838588878
H   2.494398995335442   0.9872871305455563   1.2503196285022395
H   1.9834689161062915   2.829411144461944   2.3999588294186895
H   1.6232563430037856   1.2007523981042467   1.7418759616241228

