27

H   0.3194840747853623   1.2237040894947249   0.26822528028674886
H   0.8546841781580334   0.7848169878035925   1.163821204205689
H   1.4127930738094183   1.4106037106449203   1.737601200413779
H   1.0757836175362387   0.6570831480910303   0.19720089495366772
H   0.42336844394142253   1.4680116412458664   0.5430934660362966
H   1.1881732417061093   2.602637437610472   1.5207572372283829
H   1.0284949100438525   0.9968508392675142   1.050183659827878
H   0.9221241864299524   1.8882952167292486   1.3981955078672925
H   1.9305831605536803   2.0301838052934036   1.177740478006921
H   1.2303539037130196   2.1978791687219004   0.5640626667819418
H   1.6655462063875897   1.6968675784055909   1.295444935258364
H   0.5557855069094599   1.7544469682634523   1.286116572203045
H   0.4938022256748943   1.499821228774043   0.9835140981851684
H   1.379937299414967   1.0585599713372231   0.5773159329299307
H   1.5432473961186126   2.0174626032057623   0.7759267948921926
H   1.2137720820859828   1.9539707897187906   1.5278734555297249
H   2.1562739384483067   2.5768430521620553   1.0758245174355359
H   2.01281686006034   2.482060293068392   1.9923934974321138
H   1.2887404628775925   1.1586717595945057   0.028034666949772483
H   1.7587718679477005   0.6281219518378104   1.0787181369305858
H   2.3561532514762784   1.0530175680453278   2.163647296617267
H   1.4765758901788042   1.0505633325921098   0.9905507064455153
H   1.2765427339246493   2.0355456696959093   0.5419149735787703
H   1.9785742576013035   2.0524321297919585   1.8294387791507079
H   1.4266666482698047   1.9724751306602828   0.5893467082683247
H   1.9528492018049486   1.6384913090771849   1.305212427029054
H   1.6792309691928917   2.177313744596465   2.8657927270248447

