27

H   0.6323602458709584   1.4864724568907453   1.5223893358097662
H   0.7422165543877665   0.3309555895691621   0.8852159506103241
H   1.6430521255934207   0.3474010399002469   1.3661453049321637
H   0.9242445317853196   1.5410100898162296   0.6226978251739107
H   1.631678425239844   0.6985260806797162   0.69082762539492
H   1.3794134320840885   1.3518875020550325   1.5645854202261371
H   0.9767785713582404   0.6459360850664886   1.1684272671739728
H   1.8109276610849425   0.5425763991915659   1.6078964719834994
H   1.5498828923345442   0.9367210009604435   2.4889509002847037
H   0.17338957738158062   1.0405464223753607   0.5499189818397842
H   0.8892002066828906   1.444319853058999   1.0743023232137578
H   1.8340480324638437   1.3682555327371004   1.4168987099890702
H   1.1491804577437539   0.7145189728193176   1.0371191343835993
H   1.7870531076754244   1.4454584176220344   1.439492092869498
H   1.7991338604838678   0.7197030227330063   2.2151238499557584
H   0.5447243199900593   1.6997038785703336   1.2642675305572957
H   1.331658713482526   2.257148372773897   1.9143135560674858
H   2.244739913651103   1.7103450477799398   2.2123170762812228
H   1.1024926733376188   0.8668587521805683   0.7547348054971771
H   1.5063214898706896   0.28598583282859746   1.6571288445453558
H   1.5138878891302663   0.9698299348307144   2.32589411808614
H   1.8269863355507063   0.3959722841347952   0.5085853596754399
H   2.474692841189154   1.2233882199622574   0.7548244328981769
H   2.309729905740722   1.5633342107856385   1.8587771567670683
H   1.8615881193599064   1.1167969069176706   1.3579555634647855
H   2.17121142454828   2.2972594124132097   2.3789117606731733
H   1.3389174633018268   1.7055078341960572   1.8019981464612127

