27

H   0.6641775222701617   0.2589422379231596   0.21900035767995177
H   0.5599553992456442   1.1932478084397464   0.28129158755262207
H   1.1734726106225606   0.7919831795886623   0.9962900534102486
H   0.6176104481990282   0.9232263844592816   1.41326162185859
H   1.410947265106953   1.264312040966528   2.166663100878187
H   1.1416800660174091   2.0627834786988704   3.059165661366039
H   0.5327195541652586   1.4302243359530564   2.3960665954016576
H   1.0185207141970658   2.122140712842923   1.934041584542327
H   0.28640175401509543   2.619614427976424   2.9515383303664033
H   0.8676504885364617   0.5186768627533005   1.225088026411335
H   1.327449839759698   0.4526456284510824   0.2790312230259909
H   2.0120214795309397   0.25122791371401604   1.0742407906481855
H   0.7971082648120176   1.1307441914522902   0.4708227466947387
H   1.589863612474649   1.1865834683285041   1.1093374250886827
H   2.2482075398643584   0.790680976599859   1.9471625887992052
H   1.0678697505492583   1.5314453267851804   1.543571986127882
H   1.9484177979744322   2.161263704653221   1.3665379793419234
H   1.8785379148651942   1.6013969437849116   2.1663392970883275
H   1.6331444300971532   0.5225303918680726   0.5028878697427587
H   1.181108071386892   1.5968024932657097   0.8509611088706123
H   2.123989672482913   1.287630756724562   1.1323671877202657
H   1.6607213259956983   1.1924741674575177   1.15816843711585
H   1.686117051614375   2.0766743397238434   1.6018576663492303
H   2.6749029752711353   1.609340852184245   1.8860921557795647
H   1.4700996926285923   2.278293711449005   2.345514263577706
H   1.501253081796424   3.1094130626373278   1.7115165878695147
H   2.3037612246024657   2.492603245801322   1.85194509282551

