27

H   0.03718593826257896   0.357193485301716   0.8481759164586903
H   0.8461549263947915   0.11260561351189124   1.6505554089056376
H   1.7016080918886223   0.04395369389013887   2.1482812199928008
H   0.17344823271032098   1.2577675958470387   0.5945347658914322
H   1.0978908742933575   0.7649962974606903   0.8323679301615666
H   1.49771400199373   0.9975233565402756   1.6984554686917157
H   0.19388232109131098   1.0594192939225182   1.5469245032569807
H   1.1878996000430877   1.0883021154944708   1.8347748062156561
H   2.0985257244062576   1.7531089467110192   1.9968179167823898
H   0.4656199098863847   0.7895988877560567   0.1138900780816874
H   0.9817358023706221   1.0124084083165772   0.9216582204414215
H   1.168603611180635   0.8865124604548079   1.9326207601212853
H   1.1521429057483934   0.9774699643429547   0.7326152717725104
H   1.8083045023205986   1.4225599816538106   1.4154616880947755
H   1.6760115730660756   1.5769159826583394   2.452463373213143
H   0.5386990786277331   1.7453260304293146   0.756443629065603
H   1.2146997633910759   2.239124206692326   1.4192826749587266
H   2.054771135543528   2.543229059355228   2.5296288357774475
H   1.1933344646381265   1.1311714733337708   0.8007068555672393
H   1.7173697888544628   1.4129740465461966   1.5882080226095083
H   2.3838784177404952   0.8477335672857957   2.038618175965012
H   1.772083191490642   2.0291593525944265   0.799195614012971
H   2.6073192224859203   1.9240124415329063   1.4589630947334522
H   2.8605397558723498   1.6776375961560066   2.3569316334550536
H   0.9324246199524827   1.7170551570302475   1.7880447041372358
H   1.909980563418126   2.1909998523912337   2.068083871682541
H   2.1351665448928108   1.6886530628530323   3.0045657460279935

