27

H   1.1489947998297672   1.0743509752088924   1.6044608741014044
H   1.4282796049766389   1.6116563106390072   2.338210073046969
H   1.273243899091535   2.556994784855714   1.8866931220272019
H   1.153189638725714   0.3380454048737866   2.2530274151861454
H   1.943019189848244   0.6722758170567289   1.3332236606711614
H   0.9125544090352165   1.1320779868067468   1.5393543709548032
H   1.3355505527959444   1.625511685673884   0.6623285616993206
H   1.1045249205586896   1.1395029057257815   1.5564968944477124
H   2.025905703711682   1.6508990998694428   1.3059776940625998
H   0.7086280183027674   1.2316895428639691   0.6673045287346877
H   1.2318202107926386   2.0915625870663748   1.43146526356988
H   1.862566346613268   1.0966558954538492   1.475063112908721
H   0.6160454181243898   0.9770287386565544   1.61566415147465
H   0.9226484595015885   1.448536252872562   0.7591456236518728
H   1.3082755439008202   0.5318414768483561   0.9266270741797994
H   1.5693433495583557   0.8224887235743356   1.4734811299415616
H   1.908554942212057   1.5207861350691827   0.7922348291035798
H   1.2148866013084496   1.0952833746329862   2.3269116535422465
H   1.7722726537653102   1.9667930414998787   1.617690064389549
H   0.8378161667336543   1.2168016823027954   1.3316481596875054
H   0.6300408118096288   1.7550738438781746   2.1192537236014033
H   1.0401464650427088   1.8746573801400324   2.2787391458727697
H   1.7082154765932342   1.662458634417336   1.414492243116838
H   1.7125175575296767   0.863154325753088   2.129615035590828
H   2.0505668743234216   1.388018110848694   2.3492911901411553
H   1.7658356765575243   0.5751479097187635   0.9861287036064199
H   1.1623662549514027   1.2005717904654718   1.3956085371986109

