27

H   1.3306663713517572   2.0734346001199753   1.8385918149907976
H   1.932076748718123   1.4524519747796423   1.3699723172653684
H   2.3492263305958354   2.3608712532912195   1.9488717858720075
H   3.355627802465738   2.2238190580047394   2.0528368759946978
H   2.327421145177042   2.3249122324873963   1.831568271401485
H   1.5531162802564276   1.7323838262721527   1.627894150851609
H   2.4934497194183347   2.338070410599826   1.6448169318749029
H   2.7648664644868846   1.4508004485878292   1.913411640899065
H   1.9971671713254446   1.5494747514742095   2.484559652999551
H   2.377150904972836   2.3824488234270658   1.941520118680865
H   2.874098364868233   1.5618489805154407   1.6295842845479231
H   2.124238759654047   1.7684982000655456   1.1777003642294155
H   2.5639038336267004   1.745635176880641   1.2477684772175126
H   0.5411859347727579   2.1760470092753894   1.7329380546852018
H   1.67327017502782   2.5834512562175407   1.2560911902787875
H   1.509364703846901   1.732094504567252   2.5656756726602534
H   1.9039133861857105   1.7367820019548195   1.624024188041965
H   0.6710700524754866   2.3487242464741778   3.1203242296198415
H   1.8955541671710092   2.8140970063380086   1.2381123496137223
H   2.222214265504555   2.284896170205566   2.242420675981726
H   1.2191999447887036   2.01649105336429   1.5001662006709575
H   2.313077747560814   2.2509387591592818   2.080344417332647
H   1.3556617177133992   1.7436264846863565   1.7846200164730919
H   1.4796680012175398   2.6863238144059554   2.238619866684201
H   2.468764154767166   1.3578655933813257   1.494432335391597
H   1.9646155335873348   1.33502314737777   2.580069615445206
H   1.608184516566066   2.144823742396946   3.163929739132426

