25

H   -0.0008472726769974334  -0.030876526472967313  0.00
H   0.01977325640535192  0.9285864063079933  0.00
H   -0.05354893596176501  1.8806569087104403  0.00
H   0.01396080654084241  2.90311631497166  0.00
H   -0.0008472726769974334  3.882527473527033  0.00
H   0.9490680380738656  -0.05638786784927756  0.00
H   1.002844925425218  0.9068293423987787  0.00
H   0.9398925083905241  1.8724733454491336  0.00
H   0.9545064603916885  2.8459993479740944  0.00
H   0.9490680380738656  3.857016132150722  0.00
H   1.945694579544739  0.01614863350281809  0.00
H   1.9752122442692162  0.9950158615931955  0.00
H   1.9502436869565194  1.9423281382760977  0.00
H   2.0170514694053834  2.886194090605948  0.00
H   1.945694579544739  3.929552633502818  0.00
H   2.9211049293394002  0.05763264713974106  0.00
H   2.952561259393171  0.9847841752177968  0.00
H   2.903950463054789  1.9676824529932306  0.00
H   3.0001999277613294  3.0081111504553157  0.00
H   2.9211049293394002  3.9710366471397407  0.00
H   3.912556727323002  -0.030876526472967313  0.00
H   3.9331772564053518  0.9285864063079933  0.00
H   3.859855064038235  1.8806569087104403  0.00
H   3.927364806540842  2.90311631497166  0.00
H   3.912556727323002  3.882527473527033  0.00

