25

H   0.04108822428376142  0.002085702210466332  0.00
H   -0.013125354658436074  0.9923620789526827  0.00
H   -0.05445156149156141  1.9477159510054802  0.00
H   0.16349456365573636  2.8743594927839484  0.00
H   0.04108822428376142  3.9154897022104667  0.00
H   1.066217120459111  -0.03729940985623077  0.00
H   0.9391149314557418  0.919886324258627  0.00
H   0.9628618873621907  1.9037269248903237  0.00
H   1.1549935219168648  2.833210907173055  0.00
H   1.066217120459111  3.87610459014377  0.00
H   2.0295883969418544  0.07913842116980757  0.00
H   1.996727147853811  1.0137802942844145  0.00
H   1.914180138117927  1.9573471665491282  0.00
H   2.070332142201496  2.966279174913144  0.00
H   2.0295883969418544  3.9925424211698077  0.00
H   2.9721637494414157  -0.01877586361215621  0.00
H   2.9583359195342736  1.041932509322221  0.00
H   2.8804339583279397  1.9679971820326605  0.00
H   3.1016000872244014  2.919712023684519  0.00
H   2.9721637494414157  3.894628136387843  0.00
H   3.9544922242837615  0.002085702210466332  0.00
H   3.900278645341564  0.9923620789526827  0.00
H   3.8589524385084384  1.9477159510054802  0.00
H   4.076898563655736  2.8743594927839484  0.00
H   3.9544922242837615  3.9154897022104667  0.00

