25

H   0.04711872625337661  -0.0014839958329029984  0.00
H   0.026305125634997713  1.0227657471924154  0.00
H   0.01988804320381394  2.021657597734231  0.00
H   0.04236629676389489  2.9654772699103016  0.00
H   0.04711872625337661  3.911920004167097  0.00
H   1.0129109135075975  -0.17750678809595713  0.00
H   1.0328145488413123  0.8470003938276489  0.00
H   1.0544870544120637  1.807211212123691  0.00
H   0.9679151890769875  2.7818405880255224  0.00
H   1.0129109135075975  3.735897211904043  0.00
H   1.9111279111437343  0.11875756433281603  0.00
H   1.9723106112048527  1.0705635653430217  0.00
H   1.969946458790013  2.023766689513824  0.00
H   1.906292219171261  2.969970837632936  0.00
H   1.9111279111437343  4.032161564332816  0.00
H   2.931108041548713  -0.028943683218935742  0.00
H   2.9659106643125557  0.8966284319366467  0.00
H   2.9527041400485365  1.9352899307544307  0.00
H   2.8796535313470133  2.8778299238963507  0.00
H   2.931108041548713  3.8844603167810643  0.00
H   3.9605227262533766  -0.0014839958329029984  0.00
H   3.9397091256349976  1.0227657471924154  0.00
H   3.933292043203814  2.021657597734231  0.00
H   3.955770296763894  2.9654772699103016  0.00
H   3.9605227262533766  3.911920004167097  0.00

