25

H   -0.01054307592801469  -0.009868267422686384  0.00
H   0.0016166294208474173  0.9754351183317368  0.00
H   -0.05276396854213378  1.9368898563481538  0.00
H   -0.026872403460116177  2.9130104951054134  0.00
H   -0.01054307592801469  3.9035357325773137  0.00
H   0.9191654338227931  -0.03547273548488783  0.00
H   0.9998041762139322  0.9434265196743924  0.00
H   0.9249003253079858  1.905274721833223  0.00
H   0.9748226413409572  2.9131800261526393  0.00
H   0.9191654338227931  3.8779312645151123  0.00
H   1.9108525607790305  0.009256626697647867  0.00
H   1.987071012841007  0.9879567829233762  0.00
H   1.9588818599544826  1.9523461324101345  0.00
H   1.9380456157047379  2.9025349385668693  0.00
H   1.9108525607790305  3.922660626697648  0.00
H   2.9327605054218493  0.01452475891741374  0.00
H   2.9330548639753005  1.0438731607313225  0.00
H   2.9208024084125337  2.044485732807317  0.00
H   2.86884462215977  2.976278853754066  0.00
H   2.9327605054218493  3.9279287589174134  0.00
H   3.902860924071985  -0.009868267422686384  0.00
H   3.915020629420847  0.9754351183317368  0.00
H   3.860640031457866  1.9368898563481538  0.00
H   3.8865315965398834  2.9130104951054134  0.00
H   3.902860924071985  3.9035357325773137  0.00

