25

H   -0.01054307592801469  -0.009868267422686384  0.00
H   -0.0004793319834420287  0.9602112336551958  0.00
H   0.02148252106115256  1.940943787743439  0.00
H   -0.015992017050065258  2.9168784443052913  0.00
H   -0.01054307592801469  3.9035357325773137  0.00
H   0.9969508232286045  0.01653010094813605  0.00
H   0.9410420931501982  0.9815984340629768  0.00
H   0.9891778789269208  1.9815116182816725  0.00
H   0.973491196707685  2.9576093651995867  0.00
H   0.9969508232286045  3.929934100948136  0.00
H   1.9814615206211381  -0.03437543412799549  0.00
H   1.9429045926723543  0.9550618390296918  0.00
H   1.9774616339974398  1.9997887861998107  0.00
H   1.9324463753560863  2.9486419591669  0.00
H   1.9814615206211381  3.8790285658720043  0.00
H   2.9556584395238055  0.011943790902171524  0.00
H   2.937634641445662  0.9601920090612988  0.00
H   2.980512077942045  1.9642114269032742  0.00
H   2.909489664261482  2.9406814871587894  0.00
H   2.9556584395238055  3.9253477909021712  0.00
H   3.902860924071985  -0.009868267422686384  0.00
H   3.9129246680165575  0.9602112336551958  0.00
H   3.9348865210611526  1.940943787743439  0.00
H   3.8974119829499343  2.9168784443052913  0.00
H   3.902860924071985  3.9035357325773137  0.00

