25

H   -0.0008472726769974334  -0.030876526472967313  0.00
H   0.01977325640535192  0.9285864063079933  0.00
H   -0.05476816158926966  1.8826678661710576  0.00
H   0.01396080654084241  2.90311631497166  0.00
H   -0.0008472726769974334  3.882527473527033  0.00
H   0.9490680380738656  -0.05638786784927756  0.00
H   1.002844925425218  0.9068293423987787  0.00
H   0.9398925083905241  1.8724733454491336  0.00
H   1.002747427052427  2.9148663952509457  0.00
H   0.9490680380738656  3.857016132150722  0.00
H   1.945694579544739  0.01614863350281809  0.00
H   1.9752122442692162  0.9950158615931955  0.00
H   1.8991285100696953  1.9458137172706198  0.00
H   2.0170514694053834  2.886194090605948  0.00
H   1.945694579544739  3.929552633502818  0.00
H   2.9039990953564914  0.03999567745821902  0.00
H   2.9510304769476154  0.9864926756240929  0.00
H   2.903950463054789  1.9676824529932306  0.00
H   3.0029949887080996  2.9295992818793772  0.00
H   2.9039990953564914  3.9533996774582185  0.00
H   3.912556727323002  -0.030876526472967313  0.00
H   3.9331772564053518  0.9285864063079933  0.00
H   3.8586358384107307  1.8826678661710576  0.00
H   3.927364806540842  2.90311631497166  0.00
H   3.912556727323002  3.882527473527033  0.00

