25

H   0.0  0.0  0.00
H   0.0  0.978351  0.00
H   0.0029826007619387033  1.941417476099844  0.00
H   0.0  2.935053  0.00
H   0.0  3.913404  0.00
H   0.9843272785380814  0.023586904788579104  0.00
H   0.978351  0.978351  0.00
H   0.9734244098849213  1.9744583131974465  0.00
H   0.9603970031706826  2.954349093854013  0.00
H   0.9843272785380814  3.936990904788579  0.00
H   1.9608905709044797  -0.0018911865972876633  0.00
H   1.956702  0.978351  0.00
H   1.9536206941954686  1.9756328207169955  0.00
H   1.953114921913663  2.9307511054355233  0.00
H   1.9608905709044797  3.911512813402712  0.00
H   2.953517619355946  0.030336715717977848  0.00
H   2.934015528470236  1.016795035076655  0.00
H   2.9292263817758686  1.9864610115920058  0.00
H   2.935053  2.935053  0.00
H   2.953517619355946  3.943740715717978  0.00
H   3.913404  0.0  0.00
H   3.913404  0.978351  0.00
H   3.9163866007619386  1.941417476099844  0.00
H   3.913404  2.935053  0.00
H   3.913404  3.913404  0.00

