25

H   0.04711872625337661  -0.0014839958329029984  0.00
H   0.0266569547209438  0.9785193024404222  0.00
H   0.01988804320381394  2.021657597734231  0.00
H   0.04236629676389489  2.9654772699103016  0.00
H   0.04711872625337661  3.911920004167097  0.00
H   1.0170122352727116  -0.11037984926364562  0.00
H   1.0328145488413123  0.8470003938276489  0.00
H   0.9965076190014661  1.8338001949472833  0.00
H   0.9679151890769875  2.7818405880255224  0.00
H   1.0170122352727116  3.8030241507363542  0.00
H   1.9424895287343886  0.0452070592305647  0.00
H   2.0144081459689307  1.0595169076748243  0.00
H   1.969946458790013  2.023766689513824  0.00
H   1.9231549918656077  2.9511460156831233  0.00
H   1.9424895287343886  3.9586110592305648  0.00
H   2.931108041548713  -0.028943683218935742  0.00
H   2.9612306004108313  0.9297639601897756  0.00
H   2.9527041400485365  1.9352899307544307  0.00
H   2.9398288051679033  2.8765813277066345  0.00
H   2.931108041548713  3.8844603167810643  0.00
H   3.9605227262533766  -0.0014839958329029984  0.00
H   3.9400609547209435  0.9785193024404222  0.00
H   3.933292043203814  2.021657597734231  0.00
H   3.955770296763894  2.9654772699103016  0.00
H   3.9605227262533766  3.911920004167097  0.00

