25

H   -0.01893158007954001  -0.02445922138202592  0.00
H   0.0016166294208474173  0.9754351183317368  0.00
H   -0.04157933990048731  1.923201638231465  0.00
H   0.007836693209294622  2.939831817811238  0.00
H   -0.01893158007954001  3.8889447786179745  0.00
H   0.9514737092300951  -0.14102973047966072  0.00
H   1.0192316911578634  0.8552004978282756  0.00
H   0.9429063345753907  1.8331237253780461  0.00
H   0.9665343957457172  2.7607942449901524  0.00
H   0.9514737092300951  3.7723742695203395  0.00
H   1.941736953408076  -0.04877140192117767  0.00
H   2.016052465479418  0.9042447590758279  0.00
H   1.9764317169461334  1.8634196363917257  0.00
H   1.9380456157047379  2.9025349385668693  0.00
H   1.941736953408076  3.8646325980788223  0.00
H   2.9387990982677183  0.02051208193092308  0.00
H   2.9661398406239914  1.016625850293523  0.00
H   2.910996488425946  1.9411317409926643  0.00
H   2.881299034918784  2.972671627671753  0.00
H   2.9387990982677183  3.933916081930923  0.00
H   3.8944724199204597  -0.02445922138202592  0.00
H   3.915020629420847  0.9754351183317368  0.00
H   3.8718246600995125  1.923201638231465  0.00
H   3.921240693209294  2.939831817811238  0.00
H   3.8944724199204597  3.8889447786179745  0.00

