25

H   -0.01054307592801469  -0.009868267422686384  0.00
H   0.0016166294208474173  0.9754351183317368  0.00
H   -0.014567221933608133  2.0044044843185094  0.00
H   0.02112768190854739  2.9666453492340907  0.00
H   -0.01054307592801469  3.9035357325773137  0.00
H   0.9901495226178435  0.04482991358342013  0.00
H   0.9944070376523001  1.0248861423266078  0.00
H   0.9493089043148252  1.9652945538605295  0.00
H   0.9674869840303791  2.9629073195401787  0.00
H   0.9901495226178435  3.95823391358342  0.00
H   1.956702  0.0  0.00
H   1.9926203020272266  0.9967819739765348  0.00
H   1.9473289343584204  1.9976474842253604  0.00
H   1.9380143367020095  2.936179713127161  0.00
H   1.956702  3.913404  0.00
H   2.948008161390609  0.05419365127706122  0.00
H   2.9513306697543875  1.0230292237634246  0.00
H   2.9342303992962684  1.9919635035728651  0.00
H   2.9212777445251805  2.989955390013244  0.00
H   2.948008161390609  3.9675976512770608  0.00
H   3.902860924071985  -0.009868267422686384  0.00
H   3.915020629420847  0.9754351183317368  0.00
H   3.8988367780663915  2.0044044843185094  0.00
H   3.9345316819085467  2.9666453492340907  0.00
H   3.902860924071985  3.9035357325773137  0.00

