25

H   -0.01054307592801469  -0.009868267422686384  0.00
H   0.0023318384468712173  0.9668867059404275  0.00
H   0.0  1.956702  0.00
H   0.05071076781658623  2.944389661941117  0.00
H   -0.01054307592801469  3.9035357325773137  0.00
H   0.9734280279852355  0.020152438285207543  0.00
H   1.0195859698837608  1.004788357173298  0.00
H   0.9891778789269208  1.9815116182816725  0.00
H   1.0092844308920228  2.987957361942712  0.00
H   0.9734280279852355  3.9335564382852075  0.00
H   1.956702  0.0  0.00
H   1.9911600011454158  0.9997938287679127  0.00
H   1.9566636083974422  1.9797101710140235  0.00
H   1.9380143367020095  2.936179713127161  0.00
H   1.956702  3.913404  0.00
H   2.935053  0.0  0.00
H   2.955510539494471  1.020586114748731  0.00
H   2.947925195767443  1.9954313593736825  0.00
H   2.965787530672886  2.9510354557554708  0.00
H   2.935053  3.913404  0.00
H   3.902860924071985  -0.009868267422686384  0.00
H   3.915735838446871  0.9668867059404275  0.00
H   3.913404  1.956702  0.00
H   3.964114767816586  2.944389661941117  0.00
H   3.902860924071985  3.9035357325773137  0.00

