25

H   0.021120272329752422  0.0026360093865417152  0.00
H   0.0016166294208474173  0.9754351183317368  0.00
H   -0.07557452345145955  1.9622750087681253  0.00
H   -0.015158937953872385  2.934323460722459  0.00
H   0.021120272329752422  3.916040009386542  0.00
H   0.9953271737252691  -0.09048508773799258  0.00
H   1.0112537632877423  0.8456714302445848  0.00
H   0.9249003253079858  1.905274721833223  0.00
H   0.9929998160637297  2.8532656381891335  0.00
H   0.9953271737252691  3.8229189122620078  0.00
H   1.9420366678428538  -0.009679230182002445  0.00
H   2.0132513174420272  0.9469886985365157  0.00
H   1.9588818599544826  1.9523461324101345  0.00
H   1.9380456157047379  2.9025349385668693  0.00
H   1.9420366678428538  3.9037247698179978  0.00
H   2.9387990982677183  0.02051208193092308  0.00
H   2.990308524245162  1.0462613250528316  0.00
H   2.917737081208155  2.0221941696251657  0.00
H   2.9285563307789046  2.990693246527803  0.00
H   2.9387990982677183  3.933916081930923  0.00
H   3.934524272329752  0.0026360093865417152  0.00
H   3.915020629420847  0.9754351183317368  0.00
H   3.8378294765485403  1.9622750087681253  0.00
H   3.898245062046127  2.934323460722459  0.00
H   3.934524272329752  3.916040009386542  0.00

