25

H   0.0  0.0  0.00
H   -0.029702944513936513  0.9729204898481417  0.00
H   0.0  1.956702  0.00
H   0.02017959456811862  2.9488832359879327  0.00
H   0.0  3.913404  0.00
H   0.9734280279852355  0.020152438285207543  0.00
H   0.9678981908574057  1.006164227916153  0.00
H   0.9891778789269208  1.9815116182816725  0.00
H   0.973491196707685  2.9576093651995867  0.00
H   0.9734280279852355  3.9335564382852075  0.00
H   1.956702  0.0  0.00
H   1.9491652853160635  1.0002010315220762  0.00
H   2.0015926408643923  1.9760687479586143  0.00
H   1.9616529274280423  2.971614114849254  0.00
H   1.956702  3.913404  0.00
H   2.935053  0.0  0.00
H   2.9106155784194483  1.028415043411397  0.00
H   2.9292263817758686  1.9864610115920058  0.00
H   2.935053  2.935053  0.00
H   2.935053  3.913404  0.00
H   3.913404  0.0  0.00
H   3.883701055486063  0.9729204898481417  0.00
H   3.913404  1.956702  0.00
H   3.9335835945681183  2.9488832359879327  0.00
H   3.913404  3.913404  0.00

