25

H   -0.01054307592801469  -0.009868267422686384  0.00
H   0.0016166294208474173  0.9754351183317368  0.00
H   -0.013331703713978672  1.988962608502669  0.00
H   -0.00630152975246339  2.923790560547286  0.00
H   -0.01054307592801469  3.9035357325773137  0.00
H   0.9734280279852355  0.020152438285207543  0.00
H   1.0240464821419344  1.0130053191933162  0.00
H   0.9862080820782791  1.93117778610882  0.00
H   0.9791975879796545  2.89617569577637  0.00
H   0.9734280279852355  3.9335564382852075  0.00
H   1.956702  0.0  0.00
H   1.9911600011454158  0.9997938287679127  0.00
H   1.9566636083974422  1.9797101710140235  0.00
H   1.9916003135777047  2.946997147061061  0.00
H   1.956702  3.913404  0.00
H   2.935053  0.0  0.00
H   2.9473350908261464  0.9926858856377386  0.00
H   2.9292263817758686  1.9864610115920058  0.00
H   2.9408646726860272  2.9625389389828998  0.00
H   2.935053  3.913404  0.00
H   3.902860924071985  -0.009868267422686384  0.00
H   3.915020629420847  0.9754351183317368  0.00
H   3.9000722962860213  1.988962608502669  0.00
H   3.907102470247536  2.923790560547286  0.00
H   3.902860924071985  3.9035357325773137  0.00

