25

H   -0.01054307592801469  -0.009868267422686384  0.00
H   0.008774751199950328  1.0068022820293758  0.00
H   0.015230231345597624  1.9898895971888069  0.00
H   -0.041206728667166154  2.956606504731743  0.00
H   -0.01054307592801469  3.9035357325773137  0.00
H   0.9734280279852355  0.020152438285207543  0.00
H   1.0240464821419344  1.0130053191933162  0.00
H   0.9862080820782791  1.93117778610882  0.00
H   0.9225048333436827  2.923370342832422  0.00
H   0.9734280279852355  3.9335564382852075  0.00
H   1.956702  0.0  0.00
H   1.9911600011454158  0.9997938287679127  0.00
H   1.9566636083974422  1.9797101710140235  0.00
H   1.9224125574807975  2.9278379353084283  0.00
H   1.956702  3.913404  0.00
H   2.935053  0.0  0.00
H   2.9627328762172485  1.0187870664540233  0.00
H   2.9292263817758686  1.9864610115920058  0.00
H   2.909988474504418  2.97617936373125  0.00
H   2.935053  3.913404  0.00
H   3.902860924071985  -0.009868267422686384  0.00
H   3.92217875119995  1.0068022820293758  0.00
H   3.9286342313455975  1.9898895971888069  0.00
H   3.8721972713328334  2.956606504731743  0.00
H   3.902860924071985  3.9035357325773137  0.00

