25

H   0.0  0.0  0.00
H   0.0  0.978351  0.00
H   0.0  1.956702  0.00
H   0.0  2.935053  0.00
H   0.0  3.913404  0.00
H   0.9734280279852355  0.020152438285207543  0.00
H   0.978351  0.978351  0.00
H   0.9734244098849213  1.9744583131974465  0.00
H   0.9603970031706826  2.954349093854013  0.00
H   0.9734280279852355  3.9335564382852075  0.00
H   1.9674066868645823  0.017011598401897567  0.00
H   1.956702  0.978351  0.00
H   1.9536206941954686  1.9756328207169955  0.00
H   1.9327231168292922  2.9470486803723466  0.00
H   1.9674066868645823  3.9304155984018974  0.00
H   2.953517619355946  0.030336715717977848  0.00
H   2.9102137653895777  0.991513464533221  0.00
H   2.9292263817758686  1.9864610115920058  0.00
H   2.935053  2.935053  0.00
H   2.953517619355946  3.943740715717978  0.00
H   3.913404  0.0  0.00
H   3.913404  0.978351  0.00
H   3.913404  1.956702  0.00
H   3.913404  2.935053  0.00
H   3.913404  3.913404  0.00

