25

H   0.013147532432759589  0.01576451613944294  0.00
H   -0.008781494547633238  0.9993134804205731  0.00
H   -0.009259065032335582  1.9732153710878182  0.00
H   -0.01467797186361464  2.939636741823835  0.00
H   0.013147532432759589  3.929168516139443  0.00
H   0.9734280279852355  0.020152438285207543  0.00
H   0.9653138131612944  0.970704955726652  0.00
H   0.9775825041144508  1.955945280410905  0.00
H   0.9670320649294023  2.993612203840477  0.00
H   0.9734280279852355  3.9335564382852075  0.00
H   1.956702  0.0  0.00
H   1.9926951682859029  1.0320983096851943  0.00
H   1.9808690226806542  2.002689009000902  0.00
H   1.918524560828355  2.9588837462595965  0.00
H   1.956702  3.913404  0.00
H   2.941503137801366  0.06066285948996894  0.00
H   2.958833206636411  1.0023970015194712  0.00
H   2.957259679531489  1.964257500565412  0.00
H   2.9099393999867442  2.972916926847957  0.00
H   2.941503137801366  3.974066859489969  0.00
H   3.9265515324327596  0.01576451613944294  0.00
H   3.9046225054523664  0.9993134804205731  0.00
H   3.9041449349676642  1.9732153710878182  0.00
H   3.8987260281363842  2.939636741823835  0.00
H   3.9265515324327596  3.929168516139443  0.00

