25

H   0.012020218706278207  -0.011324885426874222  0.00
H   -0.03471855394383812  0.9752541605355414  0.00
H   0.0  1.956702  0.00
H   -0.01749331534207788  2.930187560507974  0.00
H   0.012020218706278207  3.9020791145731257  0.00
H   0.9734280279852355  0.020152438285207543  0.00
H   0.932036899099048  1.0050657189748697  0.00
H   0.987921956838199  2.0062707357341973  0.00
H   0.9632209546467421  2.9628287009797667  0.00
H   0.9734280279852355  3.9335564382852075  0.00
H   1.960660632759402  0.013057748703047413  0.00
H   1.9708989016660179  0.9943215227711251  0.00
H   1.9479258918978095  1.9774374079807815  0.00
H   1.9581998033929373  2.9472459340576598  0.00
H   1.960660632759402  3.9264617487030473  0.00
H   2.9463348578393695  0.024242099353887284  0.00
H   2.940719600390652  1.0285122114210434  0.00
H   2.9292263817758686  1.9864610115920058  0.00
H   2.944739233695179  2.9880110664449275  0.00
H   2.9463348578393695  3.937646099353887  0.00
H   3.925424218706278  -0.011324885426874222  0.00
H   3.8786854460561617  0.9752541605355414  0.00
H   3.913404  1.956702  0.00
H   3.8959106846579217  2.930187560507974  0.00
H   3.925424218706278  3.9020791145731257  0.00

