25

H   -0.02335064418486685  -0.07093170549563302  0.00
H   0.0006043554077836974  0.8753496038787157  0.00
H   -0.030653630665405482  1.8705029985978894  0.00
H   -0.006272897044823443  2.883169307339013  0.00
H   -0.02335064418486685  3.8424722945043674  0.00
H   0.9775925707101589  -0.129530611946237  0.00
H   0.9936909885402497  0.8591295416203484  0.00
H   0.9753774491114306  1.8194146236694486  0.00
H   0.9410186262615551  2.767094498500893  0.00
H   0.9775925707101589  3.7838733880537636  0.00
H   1.9180142645734986  0.010908784698501199  0.00
H   1.9548309176835548  0.9528269352690445  0.00
H   1.9187905040927857  1.8927129151585924  0.00
H   1.984710952861214  2.9677968947222224  0.00
H   1.9180142645734986  3.9243127846985013  0.00
H   2.889701763426935  -0.018988901753546717  0.00
H   2.9659242606415157  0.9878958045120882  0.00
H   2.9099437548663967  1.960373809755931  0.00
H   2.939787970044915  2.9332782897551213  0.00
H   2.889701763426935  3.894415098246453  0.00
H   3.890053355815133  -0.07093170549563302  0.00
H   3.9140083554077836  0.8753496038787157  0.00
H   3.882750369334594  1.8705029985978894  0.00
H   3.907131102955176  2.883169307339013  0.00
H   3.890053355815133  3.8424722945043674  0.00

