25

H   0.005292694384836219  -0.04257705723639268  0.00
H   -0.010248379127631255  0.9528292897967803  0.00
H   0.005912252878091988  1.9246967504909644  0.00
H   -0.11302172428310661  2.9068134851250162  0.00
H   0.005292694384836219  3.8708269427636073  0.00
H   1.0263451227042115  -0.07959331154480583  0.00
H   1.0007833223980835  0.9837892078351691  0.00
H   0.9904507583442395  1.947234335914769  0.00
H   0.8967253830503079  2.906617502631128  0.00
H   1.0263451227042115  3.833810688455194  0.00
H   1.998243650115641  -0.07097353246643763  0.00
H   1.9472466701044036  0.9356441750870214  0.00
H   1.9658285144587213  1.890706672220752  0.00
H   1.8562869607615178  2.856159202501265  0.00
H   1.998243650115641  3.8424304675335623  0.00
H   2.9806128936686136  -0.0019254018345261654  0.00
H   2.9071362100335323  0.9413430728169468  0.00
H   2.943275983953075  1.9925766428107154  0.00
H   2.820502497063165  2.9673687182530677  0.00
H   2.9806128936686136  3.911478598165474  0.00
H   3.9186966943848365  -0.04257705723639268  0.00
H   3.9031556208723686  0.9528292897967803  0.00
H   3.919316252878092  1.9246967504909644  0.00
H   3.8003822757168932  2.9068134851250162  0.00
H   3.9186966943848365  3.8708269427636073  0.00

