25

H   -0.0272447663849276  -0.03526557796111034  0.00
H   0.07102444966232473  0.9581805682244536  0.00
H   0.01740440044217266  1.93311996153815  0.00
H   -0.011478267286880048  2.929537987306545  0.00
H   -0.0272447663849276  3.87813842203889  0.00
H   0.9490680380738656  -0.05638786784927756  0.00
H   1.002844925425218  0.9068293423987787  0.00
H   0.9600921587752742  1.8908156332427337  0.00
H   0.9665716695743846  2.8856924596695595  0.00
H   0.9490680380738656  3.857016132150722  0.00
H   1.9133170986661905  -0.02891923104320565  0.00
H   1.9752122442692162  0.9950158615931955  0.00
H   1.9502436869565194  1.9423281382760977  0.00
H   2.014395235980433  2.93848328693092  0.00
H   1.9133170986661905  3.8844847689567943  0.00
H   2.936240724368142  0.03849985743176479  0.00
H   2.952561259393171  0.9847841752177968  0.00
H   2.9535468542432675  2.000534586509232  0.00
H   2.960093098230825  2.955636632084104  0.00
H   2.936240724368142  3.9519038574317644  0.00
H   3.886159233615072  -0.03526557796111034  0.00
H   3.9844284496623246  0.9581805682244536  0.00
H   3.9308084004421726  1.93311996153815  0.00
H   3.9019257327131194  2.929537987306545  0.00
H   3.886159233615072  3.87813842203889  0.00

