25

H   0.0  0.0  0.00
H   -0.002744667956936949  0.9647907149645767  0.00
H   0.011265196890731266  1.9652865449619485  0.00
H   0.024696574865305278  2.920886539374843  0.00
H   0.0  3.913404  0.00
H   0.9911614908027682  0.025842526999947383  0.00
H   0.9650120515723575  1.0194502105894112  0.00
H   0.9975434487996206  2.022557527835844  0.00
H   0.9825278376492396  2.9741122357383336  0.00
H   0.9911614908027682  3.9392465269999475  0.00
H   1.9619363919941728  0.007073707190276692  0.00
H   1.9865202405123203  0.991309645810059  0.00
H   1.9898640814332746  1.9691988358642394  0.00
H   1.931242730898972  2.9312149492076687  0.00
H   1.9619363919941728  3.9204777071902766  0.00
H   2.9346359450723503  0.05662821476343417  0.00
H   2.945506564579323  1.0373212433951955  0.00
H   2.933117170855692  2.0144390002480463  0.00
H   2.9301660024288276  3.00781294251642  0.00
H   2.9346359450723503  3.9700322147634344  0.00
H   3.913404  0.0  0.00
H   3.9106593320430627  0.9647907149645767  0.00
H   3.9246691968907315  1.9652865449619485  0.00
H   3.938100574865305  2.920886539374843  0.00
H   3.913404  3.913404  0.00

