25

H   0.0  0.0  0.00
H   0.010261555570601556  0.9735468100070402  0.00
H   0.0  1.956702  0.00
H   0.0  2.935053  0.00
H   0.0  3.913404  0.00
H   0.9690014727843722  0.00015458151274103799  0.00
H   0.9913939990672669  0.996577050828984  0.00
H   0.978351  1.956702  0.00
H   0.978351  2.935053  0.00
H   0.9690014727843722  3.913558581512741  0.00
H   1.945811647831369  -0.01984743235110549  0.00
H   1.9649030757420771  0.9558154240876648  0.00
H   1.9728714532675986  1.9455205324445937  0.00
H   1.9578618130166066  2.9205575289155323  0.00
H   1.945811647831369  3.8935565676488944  0.00
H   2.935053  0.0  0.00
H   2.935053  0.978351  0.00
H   2.9330025435018796  1.9585294117722867  0.00
H   2.9322560351103553  2.936764292210865  0.00
H   2.935053  3.913404  0.00
H   3.913404  0.0  0.00
H   3.9236655555706013  0.9735468100070402  0.00
H   3.913404  1.956702  0.00
H   3.913404  2.935053  0.00
H   3.913404  3.913404  0.00

