25

H   0.04711872625337661  -0.0014839958329029984  0.00
H   0.0016166294208474173  0.9754351183317368  0.00
H   0.05373740634017794  1.9358187393026902  0.00
H   -0.009118310838884265  2.9423149367831423  0.00
H   0.04711872625337661  3.911920004167097  0.00
H   0.9855928874336041  -0.03828033167042906  0.00
H   0.9998041762139322  0.9434265196743924  0.00
H   1.0056503313668526  1.8525189279810252  0.00
H   0.9673900115427903  2.8704418386391484  0.00
H   0.9855928874336041  3.875123668329571  0.00
H   1.9424895287343886  0.0452070592305647  0.00
H   1.9896083089493781  1.0145479730198705  0.00
H   1.9668915848028252  1.9826752272553807  0.00
H   1.9297461825685627  2.9457204680530773  0.00
H   1.9424895287343886  3.9586110592305648  0.00
H   2.935053  0.0  0.00
H   2.9444569975297994  0.9416075325683265  0.00
H   2.986080410732577  1.9532450267855685  0.00
H   2.9150752675125826  2.925041041365911  0.00
H   2.935053  3.913404  0.00
H   3.9605227262533766  -0.0014839958329029984  0.00
H   3.915020629420847  0.9754351183317368  0.00
H   3.967141406340178  1.9358187393026902  0.00
H   3.904285689161115  2.9423149367831423  0.00
H   3.9605227262533766  3.911920004167097  0.00

