25

H   0.06802511405898876  0.005302740917718161  0.00
H   -0.010248379127631255  0.9528292897967803  0.00
H   0.005912252878091988  1.9246967504909644  0.00
H   -0.11302172428310661  2.9068134851250162  0.00
H   0.06802511405898876  3.918706740917718  0.00
H   1.0263451227042115  -0.07959331154480583  0.00
H   0.9207599041762421  1.003557109882258  0.00
H   0.9904507583442395  1.947234335914769  0.00
H   0.9203752066045245  2.874464724143054  0.00
H   1.0263451227042115  3.833810688455194  0.00
H   1.998243650115641  -0.07097353246643763  0.00
H   1.9472466701044036  0.9356441750870214  0.00
H   1.9658285144587213  1.890706672220752  0.00
H   1.8497898882186152  2.8380901821032656  0.00
H   1.998243650115641  3.8424304675335623  0.00
H   2.9806128936686136  -0.0019254018345261654  0.00
H   2.963518083780706  0.9774342185578961  0.00
H   2.943275983953075  1.9925766428107154  0.00
H   2.820502497063165  2.9673687182530677  0.00
H   2.9806128936686136  3.911478598165474  0.00
H   3.981429114058989  0.005302740917718161  0.00
H   3.9031556208723686  0.9528292897967803  0.00
H   3.919316252878092  1.9246967504909644  0.00
H   3.8003822757168932  2.9068134851250162  0.00
H   3.981429114058989  3.918706740917718  0.00

