25

H   -0.01054307592801469  -0.009868267422686384  0.00
H   0.0016166294208474173  0.9754351183317368  0.00
H   -0.024869974563334025  1.9476244037260033  0.00
H   0.0210498923297266  2.907660741556019  0.00
H   -0.01054307592801469  3.9035357325773137  0.00
H   0.9855928874336041  -0.03828033167042906  0.00
H   0.9998041762139322  0.9434265196743924  0.00
H   0.9249003253079858  1.905274721833223  0.00
H   0.9758273248114556  2.912828393029514  0.00
H   0.9855928874336041  3.875123668329571  0.00
H   1.9424895287343886  0.0452070592305647  0.00
H   1.9911600011454158  0.9997938287679127  0.00
H   1.9668915848028252  1.9826752272553807  0.00
H   1.896903394322035  2.962007654539799  0.00
H   1.9424895287343886  3.9586110592305648  0.00
H   2.9327605054218493  0.01452475891741374  0.00
H   2.9376887085840595  1.0775658664763192  0.00
H   2.9208024084125337  2.044485732807317  0.00
H   2.9408646726860272  2.9625389389828998  0.00
H   2.9327605054218493  3.9279287589174134  0.00
H   3.902860924071985  -0.009868267422686384  0.00
H   3.915020629420847  0.9754351183317368  0.00
H   3.888534025436666  1.9476244037260033  0.00
H   3.934453892329726  2.907660741556019  0.00
H   3.902860924071985  3.9035357325773137  0.00

