25

H   0.04108822428376142  0.002085702210466332  0.00
H   -0.013125354658436074  0.9923620789526827  0.00
H   -0.05445156149156141  1.9477159510054802  0.00
H   0.21969673927934996  2.9281880811332086  0.00
H   0.04108822428376142  3.9154897022104667  0.00
H   1.066217120459111  -0.03729940985623077  0.00
H   0.9391149314557418  0.919886324258627  0.00
H   0.9628618873621907  1.9037269248903237  0.00
H   1.1549935219168648  2.833210907173055  0.00
H   1.066217120459111  3.87610459014377  0.00
H   2.0295883969418544  0.07913842116980757  0.00
H   1.936511936784001  1.0251512373293095  0.00
H   1.914180138117927  1.9573471665491282  0.00
H   2.1347848479654896  3.0501007237295363  0.00
H   2.0295883969418544  3.9925424211698077  0.00
H   2.990934284227071  0.05281852505136824  0.00
H   2.9583359195342736  1.041932509322221  0.00
H   2.849973721701692  2.0026652746470286  0.00
H   3.093023582284692  2.982801245204394  0.00
H   2.990934284227071  3.966222525051368  0.00
H   3.9544922242837615  0.002085702210466332  0.00
H   3.900278645341564  0.9923620789526827  0.00
H   3.8589524385084384  1.9477159510054802  0.00
H   4.1331007392793495  2.9281880811332086  0.00
H   3.9544922242837615  3.9154897022104667  0.00

