25

H   0.0  0.0  0.00
H   0.0  0.978351  0.00
H   0.0  1.956702  0.00
H   0.0  2.935053  0.00
H   0.0  3.913404  0.00
H   0.9734280279852355  0.020152438285207543  0.00
H   0.978351  0.978351  0.00
H   0.978351  1.956702  0.00
H   0.978351  2.935053  0.00
H   0.9734280279852355  3.9335564382852075  0.00
H   1.956702  0.0  0.00
H   1.956702  0.978351  0.00
H   1.956702  1.956702  0.00
H   1.9637163535568565  2.9143452743148743  0.00
H   1.956702  3.913404  0.00
H   2.935053  0.0  0.00
H   2.935053  0.978351  0.00
H   2.935053  1.956702  0.00
H   2.935053  2.935053  0.00
H   2.935053  3.913404  0.00
H   3.913404  0.0  0.00
H   3.913404  0.978351  0.00
H   3.913404  1.956702  0.00
H   3.913404  2.935053  0.00
H   3.913404  3.913404  0.00

