25

H   -0.01054307592801469  -0.009868267422686384  0.00
H   0.0023318384468712173  0.9668867059404275  0.00
H   0.0  1.956702  0.00
H   0.014441436753934923  2.9565334057685084  0.00
H   -0.01054307592801469  3.9035357325773137  0.00
H   0.9734280279852355  0.020152438285207543  0.00
H   1.0195859698837608  1.004788357173298  0.00
H   0.9891778789269208  1.9815116182816725  0.00
H   0.9431357306593859  2.968699667734578  0.00
H   0.9734280279852355  3.9335564382852075  0.00
H   1.956702  0.0  0.00
H   2.0013330661802535  1.0211136484899155  0.00
H   1.9566636083974422  1.9797101710140235  0.00
H   1.958922047876311  2.94981442463343  0.00
H   1.956702  3.913404  0.00
H   2.935053  0.0  0.00
H   2.955510539494471  1.020586114748731  0.00
H   2.9285787393016505  1.99796555712955  0.00
H   2.9504359389399335  2.9420269235406273  0.00
H   2.935053  3.913404  0.00
H   3.902860924071985  -0.009868267422686384  0.00
H   3.915735838446871  0.9668867059404275  0.00
H   3.913404  1.956702  0.00
H   3.9278454367539344  2.9565334057685084  0.00
H   3.902860924071985  3.9035357325773137  0.00

