25

H   -0.01054307592801469  -0.009868267422686384  0.00
H   0.0016166294208474173  0.9754351183317368  0.00
H   -0.034088642426702356  1.9462555952091691  0.00
H   0.010131010012180659  2.889617005081823  0.00
H   -0.01054307592801469  3.9035357325773137  0.00
H   0.9847358714334936  -0.04838722515809959  0.00
H   0.9998041762139322  0.9434265196743924  0.00
H   0.9862080820782791  1.93117778610882  0.00
H   0.9665716695743846  2.8856924596695595  0.00
H   0.9847358714334936  3.8650167748419  0.00
H   1.9678785497105322  0.007823691116675628  0.00
H   1.9911600011454158  0.9997938287679127  0.00
H   1.9668915848028252  1.9826752272553807  0.00
H   1.8920932470375065  2.9588800685305356  0.00
H   1.9678785497105322  3.921227691116676  0.00
H   2.935053  0.0  0.00
H   2.922933505048839  1.0034879980451548  0.00
H   2.946359721329669  1.9925226770583493  0.00
H   2.9408646726860272  2.9625389389828998  0.00
H   2.935053  3.913404  0.00
H   3.902860924071985  -0.009868267422686384  0.00
H   3.915020629420847  0.9754351183317368  0.00
H   3.8793153575732977  1.9462555952091691  0.00
H   3.92353501001218  2.889617005081823  0.00
H   3.902860924071985  3.9035357325773137  0.00

