25

H   0.04108822428376142  0.002085702210466332  0.00
H   0.028504023703191675  0.9956787047753552  0.00
H   -0.04097677649140473  1.9658862974983602  0.00
H   0.07002822588647381  2.9438985503722233  0.00
H   0.04108822428376142  3.9154897022104667  0.00
H   1.0443737608789712  -0.12852741842386664  0.00
H   1.0070877332905614  0.9123861614972909  0.00
H   0.9497587778268485  1.8900670422821384  0.00
H   1.000621463715461  2.8582334016911073  0.00
H   1.0443737608789712  3.784876581576134  0.00
H   1.992182517959052  0.04197895873944593  0.00
H   1.9689679917985417  1.016556974390242  0.00
H   1.914180138117927  1.9573471665491282  0.00
H   2.0534121189744665  2.951977833188201  0.00
H   1.992182517959052  3.9553829587394462  0.00
H   2.9510832735751924  -0.04519182815728115  0.00
H   2.960931644188099  0.9878513000470556  0.00
H   2.893005442084504  1.997981808721849  0.00
H   3.0302554075167296  2.9550164084387376  0.00
H   2.9510832735751924  3.8682121718427185  0.00
H   3.9544922242837615  0.002085702210466332  0.00
H   3.9419080237031916  0.9956787047753552  0.00
H   3.8724272235085953  1.9658862974983602  0.00
H   3.9834322258864736  2.9438985503722233  0.00
H   3.9544922242837615  3.9154897022104667  0.00

