25

H   0.0412727324196744  0.017712489774968684  0.00
H   -0.022440772207022962  0.9961168608654672  0.00
H   -0.033581633163424156  1.9692627429351341  0.00
H   -0.03631026852037771  2.9425976438929595  0.00
H   0.0412727324196744  3.931116489774969  0.00
H   0.9932241343146692  0.06936485889015877  0.00
H   1.001000073302803  1.0119488628202697  0.00
H   0.9071465751806362  1.976257867252284  0.00
H   0.9604593777356867  2.9729083983943294  0.00
H   0.9932241343146692  3.9827688588901586  0.00
H   1.9619488785182266  0.02447824192912276  0.00
H   1.956352867400847  0.9756783552439291  0.00
H   1.895545616773179  1.9365204014165864  0.00
H   1.9302221750903936  2.953746507734868  0.00
H   1.9619488785182266  3.9378822419291226  0.00
H   2.948008161390609  0.05419365127706122  0.00
H   2.8946919702271825  1.0024745238980282  0.00
H   2.86813311100262  2.0075346769718805  0.00
H   2.900616486476833  3.000091586946465  0.00
H   2.948008161390609  3.9675976512770608  0.00
H   3.9546767324196743  0.017712489774968684  0.00
H   3.8909632277929767  0.9961168608654672  0.00
H   3.879822366836575  1.9692627429351341  0.00
H   3.8770937314796217  2.9425976438929595  0.00
H   3.9546767324196743  3.931116489774969  0.00

