25

H   -0.01054307592801469  -0.009868267422686384  0.00
H   0.0016166294208474173  0.9754351183317368  0.00
H   0.0  1.956702  0.00
H   0.02112768190854739  2.9666453492340907  0.00
H   -0.01054307592801469  3.9035357325773137  0.00
H   0.9734280279852355  0.020152438285207543  0.00
H   0.9944070376523001  1.0248861423266078  0.00
H   0.9891778789269208  1.9815116182816725  0.00
H   0.9674869840303791  2.9629073195401787  0.00
H   0.9734280279852355  3.9335564382852075  0.00
H   1.956702  0.0  0.00
H   2.0041577685208196  0.9919085554195755  0.00
H   1.9473289343584204  1.9976474842253604  0.00
H   1.9380143367020095  2.936179713127161  0.00
H   1.956702  3.913404  0.00
H   2.948008161390609  0.05419365127706122  0.00
H   2.954298303637075  1.0132037981712465  0.00
H   2.9292263817758686  1.9864610115920058  0.00
H   2.94714952161362  2.9834744967411946  0.00
H   2.948008161390609  3.9675976512770608  0.00
H   3.902860924071985  -0.009868267422686384  0.00
H   3.915020629420847  0.9754351183317368  0.00
H   3.913404  1.956702  0.00
H   3.9345316819085467  2.9666453492340907  0.00
H   3.902860924071985  3.9035357325773137  0.00

