25

H   -0.02335064418486685  -0.07093170549563302  0.00
H   -0.02963725640654502  0.9364185168528472  0.00
H   -0.04157933990048731  1.923201638231465  0.00
H   -0.006272897044823443  2.883169307339013  0.00
H   -0.02335064418486685  3.8424722945043674  0.00
H   0.9467453526510209  -0.12697924852968528  0.00
H   0.9936909885402497  0.8591295416203484  0.00
H   0.9007415666109115  1.7972444449152478  0.00
H   0.9410186262615551  2.767094498500893  0.00
H   0.9467453526510209  3.786424751470315  0.00
H   1.941736953408076  -0.04877140192117767  0.00
H   1.960266680640017  0.9473289191004933  0.00
H   1.9602832754810224  1.9803195124471067  0.00
H   1.9436763059547233  2.9230217751358456  0.00
H   1.941736953408076  3.8646325980788223  0.00
H   2.9152260684269504  0.047420827282492944  0.00
H   2.9661398406239914  1.016625850293523  0.00
H   2.9099437548663967  1.960373809755931  0.00
H   2.881299034918784  2.972671627671753  0.00
H   2.9152260684269504  3.960824827282493  0.00
H   3.890053355815133  -0.07093170549563302  0.00
H   3.883766743593455  0.9364185168528472  0.00
H   3.8718246600995125  1.923201638231465  0.00
H   3.907131102955176  2.883169307339013  0.00
H   3.890053355815133  3.8424722945043674  0.00

