25

H   -0.01054307592801469  -0.009868267422686384  0.00
H   0.0016166294208474173  0.9754351183317368  0.00
H   -0.024869974563334025  1.9476244037260033  0.00
H   -0.023642948339466105  2.9498615042661878  0.00
H   -0.01054307592801469  3.9035357325773137  0.00
H   0.9855928874336041  -0.03828033167042906  0.00
H   0.9998041762139322  0.9434265196743924  0.00
H   0.9249003253079858  1.905274721833223  0.00
H   0.9275311415236269  2.8652768131179434  0.00
H   0.9855928874336041  3.875123668329571  0.00
H   1.9424895287343886  0.0452070592305647  0.00
H   1.9896083089493781  1.0145479730198705  0.00
H   1.9668915848028252  1.9826752272553807  0.00
H   1.8920932470375065  2.9588800685305356  0.00
H   1.9424895287343886  3.9586110592305648  0.00
H   2.935053  0.0  0.00
H   2.9473350908261464  0.9926858856377386  0.00
H   2.9208024084125337  2.044485732807317  0.00
H   2.9408646726860272  2.9625389389828998  0.00
H   2.935053  3.913404  0.00
H   3.902860924071985  -0.009868267422686384  0.00
H   3.915020629420847  0.9754351183317368  0.00
H   3.888534025436666  1.9476244037260033  0.00
H   3.889761051660533  2.9498615042661878  0.00
H   3.902860924071985  3.9035357325773137  0.00

