25

H   0.0  0.0  0.00
H   -0.005409494442489213  0.9726682012631637  0.00
H   0.01510557177682983  1.9702720890944752  0.00
H   0.02017959456811862  2.9488832359879327  0.00
H   0.0  3.913404  0.00
H   0.9568489774964799  0.03440061473582672  0.00
H   0.9518885775916066  0.9892610277011136  0.00
H   0.9891778789269208  1.9815116182816725  0.00
H   0.9825278376492396  2.9741122357383336  0.00
H   0.9568489774964799  3.947804614735827  0.00
H   1.956702  0.0  0.00
H   1.9491652853160635  1.0002010315220762  0.00
H   1.9536206941954686  1.9756328207169955  0.00
H   1.952774040694438  2.9312286344206253  0.00
H   1.956702  3.913404  0.00
H   2.935053  0.0  0.00
H   2.9065241257560994  1.0141970539222391  0.00
H   2.9261156800320993  1.9900560948771058  0.00
H   2.9489308235103513  2.9831847542872985  0.00
H   2.935053  3.913404  0.00
H   3.913404  0.0  0.00
H   3.9079945055575105  0.9726682012631637  0.00
H   3.92850957177683  1.9702720890944752  0.00
H   3.9335835945681183  2.9488832359879327  0.00
H   3.913404  3.913404  0.00

