25

H   0.07140664852274188  -0.020357322588828504  0.00
H   -0.010248379127631255  0.9528292897967803  0.00
H   0.022017021047511957  1.913434755110105  0.00
H   -0.11302172428310661  2.9068134851250162  0.00
H   0.07140664852274188  3.8930466774111716  0.00
H   1.0263451227042115  -0.07959331154480583  0.00
H   0.9510072101144988  0.9598722830966134  0.00
H   0.9904507583442395  1.947234335914769  0.00
H   0.8967253830503079  2.906617502631128  0.00
H   1.0263451227042115  3.833810688455194  0.00
H   2.0213335167013433  -0.12341279112790347  0.00
H   1.8914906461329049  0.8845000707749079  0.00
H   1.9658285144587213  1.890706672220752  0.00
H   1.8562869607615178  2.856159202501265  0.00
H   2.0213335167013433  3.7899912088720966  0.00
H   2.9806128936686136  -0.0019254018345261654  0.00
H   2.9399873809151473  0.9981385205644859  0.00
H   2.943275983953075  1.9925766428107154  0.00
H   2.7881997316060425  2.912638588909737  0.00
H   2.9806128936686136  3.911478598165474  0.00
H   3.984810648522742  -0.020357322588828504  0.00
H   3.9031556208723686  0.9528292897967803  0.00
H   3.935421021047512  1.913434755110105  0.00
H   3.8003822757168932  2.9068134851250162  0.00
H   3.984810648522742  3.8930466774111716  0.00

