25

H   -0.02169141044197214  0.023831175699314013  0.00
H   0.008774751199950328  1.0068022820293758  0.00
H   0.04025931367520026  2.0054432156097146  0.00
H   -0.045769733856247385  2.991736380805574  0.00
H   -0.02169141044197214  3.937235175699314  0.00
H   0.9924854336903384  -0.03896163392127454  0.00
H   0.9863136188355486  0.9559582020667549  0.00
H   0.9862080820782791  1.93117778610882  0.00
H   0.9096573351177942  2.8944840222121364  0.00
H   0.9924854336903384  3.8744423660787253  0.00
H   1.9537706054099313  -0.030928796332033028  0.00
H   2.006629798981542  0.929393311208529  0.00
H   2.025881654873364  1.88769861454699  0.00
H   1.928086573611056  2.871221877098712  0.00
H   1.9537706054099313  3.882475203667967  0.00
H   2.9400647960051858  0.015402679228185967  0.00
H   2.976691498100705  0.997131916609006  0.00
H   2.98332477146198  1.9497201383477192  0.00
H   2.884689725343707  2.948856641396941  0.00
H   2.9400647960051858  3.928806679228186  0.00
H   3.891712589558028  0.023831175699314013  0.00
H   3.92217875119995  1.0068022820293758  0.00
H   3.9536633136752  2.0054432156097146  0.00
H   3.867634266143752  2.991736380805574  0.00
H   3.891712589558028  3.937235175699314  0.00

