25

H   0.04193277057441618  0.003786122248860678  0.00
H   0.008774751199950328  1.0068022820293758  0.00
H   0.04025931367520026  2.0054432156097146  0.00
H   -0.045769733856247385  2.991736380805574  0.00
H   0.04193277057441618  3.9171901222488605  0.00
H   0.9924854336903384  -0.03896163392127454  0.00
H   0.9863136188355486  0.9559582020667549  0.00
H   0.9862080820782791  1.93117778610882  0.00
H   0.9282509329719084  2.886159955084776  0.00
H   0.9924854336903384  3.8744423660787253  0.00
H   1.9537706054099313  -0.030928796332033028  0.00
H   2.006629798981542  0.929393311208529  0.00
H   1.9633250420129074  1.9118520429974022  0.00
H   1.928086573611056  2.871221877098712  0.00
H   1.9537706054099313  3.882475203667967  0.00
H   2.9400647960051858  0.015402679228185967  0.00
H   2.976691498100705  0.997131916609006  0.00
H   2.98332477146198  1.9497201383477192  0.00
H   2.872446081207346  2.9471535615304294  0.00
H   2.9400647960051858  3.928806679228186  0.00
H   3.9553367705744162  0.003786122248860678  0.00
H   3.92217875119995  1.0068022820293758  0.00
H   3.9536633136752  2.0054432156097146  0.00
H   3.867634266143752  2.991736380805574  0.00
H   3.9553367705744162  3.9171901222488605  0.00

