25

H   -0.02799769851590559  0.004720724223867486  0.00
H   -0.008781494547633238  0.9993134804205731  0.00
H   0.04360650157860444  1.9875924632849262  0.00
H   -0.03196867235916663  2.96204013344228  0.00
H   -0.02799769851590559  3.9181247242238677  0.00
H   0.9734280279852355  0.020152438285207543  0.00
H   1.0195859698837608  1.004788357173298  0.00
H   0.9891778789269208  1.9815116182816725  0.00
H   0.9431357306593859  2.968699667734578  0.00
H   0.9734280279852355  3.9335564382852075  0.00
H   1.956702  0.0  0.00
H   2.0013330661802535  1.0211136484899155  0.00
H   1.9808690226806542  2.002689009000902  0.00
H   1.93679325328781  2.9578116320936476  0.00
H   1.956702  3.913404  0.00
H   2.933125489562718  0.06680505039559423  0.00
H   2.955510539494471  1.020586114748731  0.00
H   2.9717519678800803  1.973366935881439  0.00
H   2.896554712918154  2.9716564027745695  0.00
H   2.933125489562718  3.9802090503955943  0.00
H   3.8854063014840943  0.004720724223867486  0.00
H   3.9046225054523664  0.9993134804205731  0.00
H   3.9570105015786043  1.9875924632849262  0.00
H   3.8814353276408324  2.96204013344228  0.00
H   3.8854063014840943  3.9181247242238677  0.00

