25

H   -0.01054307592801469  -0.009868267422686384  0.00
H   0.0016166294208474173  0.9754351183317368  0.00
H   0.0  1.956702  0.00
H   0.05071076781658623  2.944389661941117  0.00
H   -0.01054307592801469  3.9035357325773137  0.00
H   0.9734280279852355  0.020152438285207543  0.00
H   0.9774358740188751  0.9754870224261285  0.00
H   0.9891778789269208  1.9815116182816725  0.00
H   1.0036543389615105  2.92725890717121  0.00
H   0.9734280279852355  3.9335564382852075  0.00
H   1.956702  0.0  0.00
H   1.9491652853160635  1.0002010315220762  0.00
H   1.9566636083974422  1.9797101710140235  0.00
H   1.989450101423554  2.9455051811688517  0.00
H   1.956702  3.913404  0.00
H   2.935053  0.0  0.00
H   2.955510539494471  1.020586114748731  0.00
H   2.9292263817758686  1.9864610115920058  0.00
H   2.935053  2.935053  0.00
H   2.935053  3.913404  0.00
H   3.902860924071985  -0.009868267422686384  0.00
H   3.915020629420847  0.9754351183317368  0.00
H   3.913404  1.956702  0.00
H   3.964114767816586  2.944389661941117  0.00
H   3.902860924071985  3.9035357325773137  0.00

