25

H   -0.01054307592801469  -0.009868267422686384  0.00
H   0.0016166294208474173  0.9754351183317368  0.00
H   0.0  1.956702  0.00
H   0.02112768190854739  2.9666453492340907  0.00
H   -0.01054307592801469  3.9035357325773137  0.00
H   0.9734280279852355  0.020152438285207543  0.00
H   1.0432246255219104  0.9546439794178821  0.00
H   0.9886968782719593  1.9399890326402516  0.00
H   0.9791975879796545  2.89617569577637  0.00
H   0.9734280279852355  3.9335564382852075  0.00
H   1.956702  0.0  0.00
H   1.9911600011454158  0.9997938287679127  0.00
H   1.9566636083974422  1.9797101710140235  0.00
H   1.9000280343531264  2.908398340649578  0.00
H   1.956702  3.913404  0.00
H   2.935053  0.0  0.00
H   2.9473350908261464  0.9926858856377386  0.00
H   2.9292263817758686  1.9864610115920058  0.00
H   2.9408646726860272  2.9625389389828998  0.00
H   2.935053  3.913404  0.00
H   3.902860924071985  -0.009868267422686384  0.00
H   3.915020629420847  0.9754351183317368  0.00
H   3.913404  1.956702  0.00
H   3.9345316819085467  2.9666453492340907  0.00
H   3.902860924071985  3.9035357325773137  0.00

