25

H   0.0412727324196744  0.017712489774968684  0.00
H   0.0016166294208474173  0.9754351183317368  0.00
H   -0.024745034430376102  1.988982300518932  0.00
H   -0.026642886073722876  2.948791112014878  0.00
H   0.0412727324196744  3.931116489774969  0.00
H   0.9901495226178435  0.04482991358342013  0.00
H   1.001000073302803  1.0119488628202697  0.00
H   0.9493089043148252  1.9652945538605295  0.00
H   0.9470889345101308  2.9278264063648924  0.00
H   0.9901495226178435  3.95823391358342  0.00
H   1.9619488785182266  0.02447824192912276  0.00
H   1.956352867400847  0.9756783552439291  0.00
H   1.9209785196934006  1.9768741616823147  0.00
H   1.9380143367020095  2.936179713127161  0.00
H   1.9619488785182266  3.9378822419291226  0.00
H   2.948008161390609  0.05419365127706122  0.00
H   2.9513306697543875  1.0230292237634246  0.00
H   2.9342303992962684  1.9919635035728651  0.00
H   2.900616486476833  3.000091586946465  0.00
H   2.948008161390609  3.9675976512770608  0.00
H   3.9546767324196743  0.017712489774968684  0.00
H   3.915020629420847  0.9754351183317368  0.00
H   3.8886589655696233  1.988982300518932  0.00
H   3.8867611139262763  2.948791112014878  0.00
H   3.9546767324196743  3.931116489774969  0.00

