25

H   0.04108822428376142  0.002085702210466332  0.00
H   -0.013125354658436074  0.9923620789526827  0.00
H   -0.04097677649140473  1.9658862974983602  0.00
H   0.07002822588647381  2.9438985503722233  0.00
H   0.04108822428376142  3.9154897022104667  0.00
H   1.0443737608789712  -0.12852741842386664  0.00
H   1.0070877332905614  0.9123861614972909  0.00
H   0.9544080080297986  1.8739627308187792  0.00
H   1.0330304914088495  2.8817865567296868  0.00
H   1.0443737608789712  3.784876581576134  0.00
H   2.0017916315875404  0.08201714901129019  0.00
H   1.996727147853811  1.0137802942844145  0.00
H   1.914180138117927  1.9573471665491282  0.00
H   2.0534121189744665  2.951977833188201  0.00
H   2.0017916315875404  3.9954211490112903  0.00
H   2.9721637494414157  -0.01877586361215621  0.00
H   2.928953200783254  1.0076224876854323  0.00
H   2.917437497904027  1.9570006329313694  0.00
H   3.0314294424575383  2.9644492833567573  0.00
H   2.9721637494414157  3.894628136387843  0.00
H   3.9544922242837615  0.002085702210466332  0.00
H   3.900278645341564  0.9923620789526827  0.00
H   3.8724272235085953  1.9658862974983602  0.00
H   3.9834322258864736  2.9438985503722233  0.00
H   3.9544922242837615  3.9154897022104667  0.00

