25

H   0.04108822428376142  0.002085702210466332  0.00
H   -0.013125354658436074  0.9923620789526827  0.00
H   -0.04097677649140473  1.9658862974983602  0.00
H   0.07590341823283435  2.9456583126184746  0.00
H   0.04108822428376142  3.9154897022104667  0.00
H   0.9732608733721803  -0.10288296472803529  0.00
H   0.9719034602174405  0.9161053780746913  0.00
H   0.9014173503090963  1.9123708613447732  0.00
H   1.1175494177205387  2.866613678224218  0.00
H   0.9732608733721803  3.8105210352719654  0.00
H   2.0017916315875404  0.08201714901129019  0.00
H   1.996727147853811  1.0137802942844145  0.00
H   1.914180138117927  1.9573471665491282  0.00
H   2.0534121189744665  2.951977833188201  0.00
H   2.0017916315875404  3.9954211490112903  0.00
H   2.9721637494414157  -0.01877586361215621  0.00
H   2.964050227997297  0.9580755635784474  0.00
H   2.9172044220700597  1.958990152386995  0.00
H   3.0314294424575383  2.9644492833567573  0.00
H   2.9721637494414157  3.894628136387843  0.00
H   3.9544922242837615  0.002085702210466332  0.00
H   3.900278645341564  0.9923620789526827  0.00
H   3.8724272235085953  1.9658862974983602  0.00
H   3.9893074182328343  2.9456583126184746  0.00
H   3.9544922242837615  3.9154897022104667  0.00

