25

H   -0.02335064418486685  -0.07093170549563302  0.00
H   -0.0015871674256283212  0.8824758890280648  0.00
H   -0.030653630665405482  1.8705029985978894  0.00
H   -0.006272897044823443  2.883169307339013  0.00
H   -0.02335064418486685  3.8424722945043674  0.00
H   0.9467453526510209  -0.12697924852968528  0.00
H   0.9936909885402497  0.8591295416203484  0.00
H   0.9579598995956252  1.792798597265291  0.00
H   0.9410186262615551  2.767094498500893  0.00
H   0.9467453526510209  3.786424751470315  0.00
H   1.9180142645734986  0.010908784698501199  0.00
H   1.9662160579123455  0.9718299002834268  0.00
H   1.9442654975060676  1.8917554705060788  0.00
H   1.9388571591965875  2.9366817970435704  0.00
H   1.9180142645734986  3.9243127846985013  0.00
H   2.8770211997683637  -0.014615065019985052  0.00
H   2.9659242606415157  0.9878958045120882  0.00
H   2.9099437548663967  1.960373809755931  0.00
H   2.9678560863981764  2.9349129788853547  0.00
H   2.8770211997683637  3.898788934980015  0.00
H   3.890053355815133  -0.07093170549563302  0.00
H   3.9118168325743716  0.8824758890280648  0.00
H   3.882750369334594  1.8705029985978894  0.00
H   3.907131102955176  2.883169307339013  0.00
H   3.890053355815133  3.8424722945043674  0.00

