25

H   7.897390997608535e-05  -0.012179523167361175  0.00
H   0.035284950062460775  0.9799612573480564  0.00
H   0.01657787459698727  1.9385369913359556  0.00
H   0.022794850321752786  2.9187088226782145  0.00
H   7.897390997608535e-05  3.9012244768326387  0.00
H   0.9794640440673362  0.012134683612138831  0.00
H   1.036596883184966  0.9459119807152011  0.00
H   1.0104482203462601  1.9751987349356184  0.00
H   0.9730275010244773  2.9466611487453593  0.00
H   0.9794640440673362  3.925538683612139  0.00
H   1.9692155281474455  0.0180959967907522  0.00
H   2.0297763483438356  1.0000338848726946  0.00
H   1.9756174239655575  1.977656098873771  0.00
H   1.9448541927349834  2.9642489243518035  0.00
H   1.9692155281474455  3.9314999967907522  0.00
H   2.941503137801366  0.06066285948996894  0.00
H   2.958833206636411  1.0023970015194712  0.00
H   2.9371474197458385  1.9826121969896326  0.00
H   2.9076783573469105  2.982533779874223  0.00
H   2.941503137801366  3.974066859489969  0.00
H   3.913482973909976  -0.012179523167361175  0.00
H   3.9486889500624605  0.9799612573480564  0.00
H   3.929981874596987  1.9385369913359556  0.00
H   3.9361988503217518  2.9187088226782145  0.00
H   3.913482973909976  3.9012244768326387  0.00

