25

H   0.0  0.0  0.00
H   0.0  0.978351  0.00
H   -0.004696645085068707  1.9457759198981461  0.00
H   0.0  2.935053  0.00
H   0.0  3.913404  0.00
H   0.9843272785380814  0.023586904788579104  0.00
H   0.978351  0.978351  0.00
H   0.9739049570797487  1.9508851214984755  0.00
H   0.9596331625431442  2.979428370407153  0.00
H   0.9843272785380814  3.936990904788579  0.00
H   1.9608905709044797  -0.0018911865972876633  0.00
H   1.956702  0.978351  0.00
H   1.9536206941954686  1.9756328207169955  0.00
H   1.953114921913663  2.9307511054355233  0.00
H   1.9608905709044797  3.911512813402712  0.00
H   2.953517619355946  0.030336715717977848  0.00
H   2.934015528470236  1.016795035076655  0.00
H   2.9510904933578628  1.9690578099177165  0.00
H   2.950076207187338  2.9592188064115232  0.00
H   2.953517619355946  3.943740715717978  0.00
H   3.913404  0.0  0.00
H   3.913404  0.978351  0.00
H   3.908707354914931  1.9457759198981461  0.00
H   3.913404  2.935053  0.00
H   3.913404  3.913404  0.00

