25

H   0.021120272329752422  0.0026360093865417152  0.00
H   0.0016166294208474173  0.9754351183317368  0.00
H   -0.04157933990048731  1.923201638231465  0.00
H   -0.015158937953872385  2.934323460722459  0.00
H   0.021120272329752422  3.916040009386542  0.00
H   0.9514737092300951  -0.14102973047966072  0.00
H   1.0192316911578634  0.8552004978282756  0.00
H   0.9249003253079858  1.905274721833223  0.00
H   0.9929998160637297  2.8532656381891335  0.00
H   0.9514737092300951  3.7723742695203395  0.00
H   1.9420366678428538  -0.009679230182002445  0.00
H   2.0132513174420272  0.9469886985365157  0.00
H   1.9198278725689637  1.8906492197496303  0.00
H   1.9380456157047379  2.9025349385668693  0.00
H   1.9420366678428538  3.9037247698179978  0.00
H   2.9387990982677183  0.02051208193092308  0.00
H   2.9661398406239914  1.016625850293523  0.00
H   2.917737081208155  2.0221941696251657  0.00
H   2.9535220834244167  2.951974529973535  0.00
H   2.9387990982677183  3.933916081930923  0.00
H   3.934524272329752  0.0026360093865417152  0.00
H   3.915020629420847  0.9754351183317368  0.00
H   3.8718246600995125  1.923201638231465  0.00
H   3.898245062046127  2.934323460722459  0.00
H   3.934524272329752  3.916040009386542  0.00

