25

H   -0.01054307592801469  -0.009868267422686384  0.00
H   0.0016166294208474173  0.9754351183317368  0.00
H   -0.04728740178723408  1.948373400327003  0.00
H   -0.015158937953872385  2.934323460722459  0.00
H   -0.01054307592801469  3.9035357325773137  0.00
H   0.9191654338227931  -0.03547273548488783  0.00
H   0.9998041762139322  0.9434265196743924  0.00
H   0.9249003253079858  1.905274721833223  0.00
H   0.9929998160637297  2.8532656381891335  0.00
H   0.9191654338227931  3.8779312645151123  0.00
H   1.9322018181426042  -0.04296253002188781  0.00
H   1.9846199177746853  0.9893544754492882  0.00
H   1.9588818599544826  1.9523461324101345  0.00
H   1.9380456157047379  2.9025349385668693  0.00
H   1.9322018181426042  3.8704414699781124  0.00
H   2.919161353936038  -0.009545443370690885  0.00
H   2.989563392073187  1.0363506181548532  0.00
H   2.917737081208155  2.0221941696251657  0.00
H   2.86884462215977  2.976278853754066  0.00
H   2.919161353936038  3.903858556629309  0.00
H   3.902860924071985  -0.009868267422686384  0.00
H   3.915020629420847  0.9754351183317368  0.00
H   3.866116598212766  1.948373400327003  0.00
H   3.898245062046127  2.934323460722459  0.00
H   3.902860924071985  3.9035357325773137  0.00

