25

H   0.04711872625337661  -0.0014839958329029984  0.00
H   -0.03699594980801316  1.0007789178460076  0.00
H   0.054400881073540956  1.9945264182341087  0.00
H   0.04236629676389489  2.9654772699103016  0.00
H   0.04711872625337661  3.911920004167097  0.00
H   0.9855928874336041  -0.03828033167042906  0.00
H   0.9890823116152495  0.894380331139031  0.00
H   0.9936063123927047  1.8660557060621448  0.00
H   0.9469400595417452  2.862617280784082  0.00
H   0.9855928874336041  3.875123668329571  0.00
H   1.9424895287343886  0.0452070592305647  0.00
H   1.9896083089493781  1.0145479730198705  0.00
H   1.9668915848028252  1.9826752272553807  0.00
H   1.8993177307762859  2.942512380586945  0.00
H   1.9424895287343886  3.9586110592305648  0.00
H   2.908969357960988  -0.02110131361865091  0.00
H   2.9444569975297994  0.9416075325683265  0.00
H   2.940804326115804  1.9644720899012746  0.00
H   2.9150752675125826  2.925041041365911  0.00
H   2.908969357960988  3.892302686381349  0.00
H   3.9605227262533766  -0.0014839958329029984  0.00
H   3.8764080501919866  1.0007789178460076  0.00
H   3.9678048810735413  1.9945264182341087  0.00
H   3.955770296763894  2.9654772699103016  0.00
H   3.9605227262533766  3.911920004167097  0.00

