25

H   -0.01054307592801469  -0.009868267422686384  0.00
H   0.008774751199950328  1.0068022820293758  0.00
H   0.015230231345597624  1.9898895971888069  0.00
H   -0.041206728667166154  2.956606504731743  0.00
H   -0.01054307592801469  3.9035357325773137  0.00
H   0.9734280279852355  0.020152438285207543  0.00
H   0.9863136188355486  0.9559582020667549  0.00
H   0.9862080820782791  1.93117778610882  0.00
H   0.9225048333436827  2.923370342832422  0.00
H   0.9734280279852355  3.9335564382852075  0.00
H   1.956702  0.0  0.00
H   1.9332979625714155  1.0126658546181218  0.00
H   1.9566636083974422  1.9797101710140235  0.00
H   1.9180928844178717  2.8917797524985223  0.00
H   1.956702  3.913404  0.00
H   2.9363014019268787  0.023401645557969798  0.00
H   2.976691498100705  0.997131916609006  0.00
H   2.981414335193494  1.9565616613482746  0.00
H   2.9317414948757445  2.9585732460655634  0.00
H   2.9363014019268787  3.93680564555797  0.00
H   3.902860924071985  -0.009868267422686384  0.00
H   3.92217875119995  1.0068022820293758  0.00
H   3.9286342313455975  1.9898895971888069  0.00
H   3.8721972713328334  2.956606504731743  0.00
H   3.902860924071985  3.9035357325773137  0.00

