25

H   0.011552835923686534  0.013099383635970671  0.00
H   0.0016166294208474173  0.9754351183317368  0.00
H   0.020174343844998676  1.9610718015965283  0.00
H   0.026651894017330965  2.9511762762331264  0.00
H   0.011552835923686534  3.926503383635971  0.00
H   1.0167356356375663  -0.04530470398193909  0.00
H   1.002844925425218  0.9068293423987787  0.00
H   0.9600921587752742  1.8908156332427337  0.00
H   0.9665716695743846  2.8856924596695595  0.00
H   1.0167356356375663  3.8680992960180607  0.00
H   1.969690033266453  0.036605534310875085  0.00
H   1.9752122442692162  0.9950158615931955  0.00
H   1.9668915848028252  1.9826752272553807  0.00
H   2.0127082547812547  2.9484536895716453  0.00
H   1.969690033266453  3.950009534310875  0.00
H   2.9131745374292493  -0.01601353164121666  0.00
H   2.9660843671916464  0.9925761521482515  0.00
H   2.934016780504447  1.9460103747490534  0.00
H   2.9623029835552286  2.9723294585215347  0.00
H   2.9131745374292493  3.897390468358783  0.00
H   3.924956835923686  0.013099383635970671  0.00
H   3.915020629420847  0.9754351183317368  0.00
H   3.9335783438449985  1.9610718015965283  0.00
H   3.9400558940173305  2.9511762762331264  0.00
H   3.924956835923686  3.926503383635971  0.00

