25

H   0.04108822428376142  0.002085702210466332  0.00
H   -0.013940449392247124  1.0064146972678851  0.00
H   -0.04097677649140473  1.9658862974983602  0.00
H   0.07002822588647381  2.9438985503722233  0.00
H   0.04108822428376142  3.9154897022104667  0.00
H   1.0443737608789712  -0.12852741842386664  0.00
H   1.0070877332905614  0.9123861614972909  0.00
H   0.9544080080297986  1.8739627308187792  0.00
H   1.0330304914088495  2.8817865567296868  0.00
H   1.0443737608789712  3.784876581576134  0.00
H   1.992182517959052  0.04197895873944593  0.00
H   1.996727147853811  1.0137802942844145  0.00
H   1.914180138117927  1.9573471665491282  0.00
H   2.0534121189744665  2.951977833188201  0.00
H   1.992182517959052  3.9553829587394462  0.00
H   2.9510832735751924  -0.04519182815728115  0.00
H   2.928953200783254  1.0076224876854323  0.00
H   2.926177837111405  1.9872943955351974  0.00
H   3.0302554075167296  2.9550164084387376  0.00
H   2.9510832735751924  3.8682121718427185  0.00
H   3.9544922242837615  0.002085702210466332  0.00
H   3.8994635506077526  1.0064146972678851  0.00
H   3.8724272235085953  1.9658862974983602  0.00
H   3.9834322258864736  2.9438985503722233  0.00
H   3.9544922242837615  3.9154897022104667  0.00

