25

H   0.0640834037010708  0.07237488711360325  0.00
H   0.12936396843880127  1.0506656443484403  0.00
H   0.01988804320381394  2.021657597734231  0.00
H   0.04236629676389489  2.9654772699103016  0.00
H   0.0640834037010708  3.9857788871136033  0.00
H   1.0129109135075975  -0.17750678809595713  0.00
H   1.085934995882773  0.7657071172316082  0.00
H   1.022764293949538  1.831684338621902  0.00
H   0.9679151890769875  2.7818405880255224  0.00
H   1.0129109135075975  3.735897211904043  0.00
H   1.960192223326885  0.021734636446764488  0.00
H   1.9723106112048527  1.0705635653430217  0.00
H   1.969946458790013  2.023766689513824  0.00
H   1.991911000398918  3.012466374366875  0.00
H   1.960192223326885  3.935138636446765  0.00
H   2.9437365466251033  -0.028553692283676962  0.00
H   2.954769761518025  0.9875191158568543  0.00
H   2.9527041400485365  1.9352899307544307  0.00
H   3.00308148658665  2.853749160951543  0.00
H   2.9437365466251033  3.884850307716323  0.00
H   3.977487403701071  0.07237488711360325  0.00
H   4.042767968438802  1.0506656443484403  0.00
H   3.933292043203814  2.021657597734231  0.00
H   3.955770296763894  2.9654772699103016  0.00
H   3.977487403701071  3.9857788871136033  0.00

